  1-BROMOEICOSANE.mol	4276-49-7
  NIST    11071316233D 1   1.00000 -3358.58214
Copyright by the U.S. Sec. Commerce on behalf of U.S.A. All rights reserved.
 62 61  0  0  0  0  0  0  0  0999 V2000
   -0.3319   -0.0637    0.0007 C    0  0  0  0  0  0  0  0  0  0  0  0
    1.0467    0.6045    0.0003 C    0  0  0  0  0  0  0  0  0  0  0  0
    0.9767    2.1370    0.0004 C    0  0  0  0  0  0  0  0  0  0  0  0
    2.3518    2.8168   -0.0000 C    0  0  0  0  0  0  0  0  0  0  0  0
    2.2754    4.3491    0.0001 C    0  0  0  0  0  0  0  0  0  0  0  0
    3.6464    5.0375   -0.0003 C    0  0  0  0  0  0  0  0  0  0  0  0
    3.5564    6.5691   -0.0001 C    0  0  0  0  0  0  0  0  0  0  0  0
    4.9198    7.2726   -0.0004 C    0  0  0  0  0  0  0  0  0  0  0  0
    4.8101    8.8028   -0.0003 C    0  0  0  0  0  0  0  0  0  0  0  0
    6.1632    9.5259   -0.0005 C    0  0  0  0  0  0  0  0  0  0  0  0
    6.0303   11.0542   -0.0003 C    0  0  0  0  0  0  0  0  0  0  0  0
    7.3722   11.7979   -0.0005 C    0  0  0  0  0  0  0  0  0  0  0  0
    7.2164   13.3241   -0.0003 C    0  0  0  0  0  0  0  0  0  0  0  0
    8.5478   14.0864   -0.0004 C    0  0  0  0  0  0  0  0  0  0  0  0
    8.3720   15.6104   -0.0001 C    0  0  0  0  0  0  0  0  0  0  0  0
    9.6951   16.3872   -0.0001 C    0  0  0  0  0  0  0  0  0  0  0  0
    9.5031   17.9091    0.0002 C    0  0  0  0  0  0  0  0  0  0  0  0
   10.8218   18.6945    0.0002 C    0  0  0  0  0  0  0  0  0  0  0  0
   10.6057   20.2170    0.0005 C    0  0  0  0  0  0  0  0  0  0  0  0
   11.9248   20.9736    0.0005 C    0  0  0  0  0  0  0  0  0  0  0  0
   11.6395   22.9385    0.0009 Br   0  0  0  0  0  0  0  0  0  0  0  0
   -0.2481   -1.1566    0.0006 H    0  0  0  0  0  0  0  0  0  0  0  0
   -0.9126    0.2256    0.8854 H    0  0  0  0  0  0  0  0  0  0  0  0
   -0.9131    0.2257   -0.8837 H    0  0  0  0  0  0  0  0  0  0  0  0
    1.6163    0.2683   -0.8780 H    0  0  0  0  0  0  0  0  0  0  0  0
    1.6168    0.2682    0.8781 H    0  0  0  0  0  0  0  0  0  0  0  0
    0.4056    2.4730    0.8790 H    0  0  0  0  0  0  0  0  0  0  0  0
    0.4051    2.4731   -0.8778 H    0  0  0  0  0  0  0  0  0  0  0  0
    2.9226    2.4812   -0.8787 H    0  0  0  0  0  0  0  0  0  0  0  0
    2.9231    2.4811    0.8783 H    0  0  0  0  0  0  0  0  0  0  0  0
    1.7031    4.6831    0.8785 H    0  0  0  0  0  0  0  0  0  0  0  0
    1.7026    4.6832   -0.8780 H    0  0  0  0  0  0  0  0  0  0  0  0
    4.2196    4.7063   -0.8790 H    0  0  0  0  0  0  0  0  0  0  0  0
    4.2202    4.7062    0.8782 H    0  0  0  0  0  0  0  0  0  0  0  0
    2.9807    6.8974    0.8782 H    0  0  0  0  0  0  0  0  0  0  0  0
    2.9802    6.8975   -0.8781 H    0  0  0  0  0  0  0  0  0  0  0  0
    5.4969    6.9484   -0.8793 H    0  0  0  0  0  0  0  0  0  0  0  0
    5.4974    6.9483    0.8780 H    0  0  0  0  0  0  0  0  0  0  0  0
    4.2298    9.1232    0.8780 H    0  0  0  0  0  0  0  0  0  0  0  0
    4.2294    9.1234   -0.8783 H    0  0  0  0  0  0  0  0  0  0  0  0
    6.7451    9.2104   -0.8794 H    0  0  0  0  0  0  0  0  0  0  0  0
    6.7455    9.2102    0.8780 H    0  0  0  0  0  0  0  0  0  0  0  0
    5.4452   11.3656    0.8780 H    0  0  0  0  0  0  0  0  0  0  0  0
    5.4448   11.3658   -0.8783 H    0  0  0  0  0  0  0  0  0  0  0  0
    7.9589   11.4915   -0.8794 H    0  0  0  0  0  0  0  0  0  0  0  0
    7.9593   11.4912    0.8780 H    0  0  0  0  0  0  0  0  0  0  0  0
    6.6268   13.6267    0.8781 H    0  0  0  0  0  0  0  0  0  0  0  0
    6.6265   13.6270   -0.8783 H    0  0  0  0  0  0  0  0  0  0  0  0
    9.1386   13.7881   -0.8792 H    0  0  0  0  0  0  0  0  0  0  0  0
    9.1389   13.7878    0.8782 H    0  0  0  0  0  0  0  0  0  0  0  0
    7.7791   15.9059    0.8783 H    0  0  0  0  0  0  0  0  0  0  0  0
    7.7788   15.9062   -0.8782 H    0  0  0  0  0  0  0  0  0  0  0  0
   10.2889   16.0954   -0.8791 H    0  0  0  0  0  0  0  0  0  0  0  0
   10.2892   16.0950    0.8785 H    0  0  0  0  0  0  0  0  0  0  0  0
    8.9092   18.2003    0.8788 H    0  0  0  0  0  0  0  0  0  0  0  0
    8.9089   18.2007   -0.8782 H    0  0  0  0  0  0  0  0  0  0  0  0
   11.4165   18.4082   -0.8795 H    0  0  0  0  0  0  0  0  0  0  0  0
   11.4168   18.4078    0.8796 H    0  0  0  0  0  0  0  0  0  0  0  0
   10.0204   20.5113    0.8803 H    0  0  0  0  0  0  0  0  0  0  0  0
   10.0202   20.5117   -0.8791 H    0  0  0  0  0  0  0  0  0  0  0  0
   12.5217   20.7735   -0.8903 H    0  0  0  0  0  0  0  0  0  0  0  0
   12.5219   20.7731    0.8911 H    0  0  0  0  0  0  0  0  0  0  0  0
  1  2  1  0
  2  3  1  0
  3  4  1  0
  4  5  1  0
  5  6  1  0
  6  7  1  0
  7  8  1  0
  8  9  1  0
  9 10  1  0
 10 11  1  0
 11 12  1  0
 12 13  1  0
 13 14  1  0
 14 15  1  0
 15 16  1  0
 16 17  1  0
 17 18  1  0
 18 19  1  0
 19 20  1  0
 20 21  1  0
  1 22  1  0
  1 23  1  0
  1 24  1  0
  2 25  1  0
  2 26  1  0
  3 27  1  0
  3 28  1  0
  4 29  1  0
  4 30  1  0
  5 31  1  0
  5 32  1  0
  6 33  1  0
  6 34  1  0
  7 35  1  0
  7 36  1  0
  8 37  1  0
  8 38  1  0
  9 39  1  0
  9 40  1  0
 10 41  1  0
 10 42  1  0
 11 43  1  0
 11 44  1  0
 12 45  1  0
 12 46  1  0
 13 47  1  0
 13 48  1  0
 14 49  1  0
 14 50  1  0
 15 51  1  0
 15 52  1  0
 16 53  1  0
 16 54  1  0
 17 55  1  0
 17 56  1  0
 18 57  1  0
 18 58  1  0
 19 59  1  0
 19 60  1  0
 20 61  1  0
 20 62  1  0
M  END
