  1-DODECYNE.mol	765-03-7
  NIST    07011507323D 1   1.00000  -470.47437
Copyright by the U.S. Sec. Commerce on behalf of U.S.A. All rights reserved.
 34 33  0  0  0  0  0  0  0  0999 V2000
    7.0106    2.3173    5.2308 C    0  0  0  0  0  0  0  0  0  0  0  0
    6.1694    1.3903    4.3392 C    0  0  0  0  0  0  0  0  0  0  0  0
    4.6979    1.2594    4.7664 C    0  0  0  0  0  0  0  0  0  0  0  0
    8.5188    2.2906    4.9300 C    0  0  0  0  0  0  0  0  0  0  0  0
    3.8734    2.5498    4.6526 C    0  0  0  0  0  0  0  0  0  0  0  0
    8.9018    2.8262    3.5445 C    0  0  0  0  0  0  0  0  0  0  0  0
    2.3929    2.3523    5.0038 C    0  0  0  0  0  0  0  0  0  0  0  0
   10.4305    2.8440    3.3292 C    0  0  0  0  0  0  0  0  0  0  0  0
    1.5599    3.6366    4.9030 C    0  0  0  0  0  0  0  0  0  0  0  0
   10.8224    3.3467    2.0117 C    0  0  0  0  0  0  0  0  0  0  0  0
    0.0821    3.4283    5.2500 C    0  0  0  0  0  0  0  0  0  0  0  0
   11.1265    3.7642    0.9200 C    0  0  0  0  0  0  0  0  0  0  0  0
    6.6478    3.3508    5.1466 H    0  0  0  0  0  0  0  0  0  0  0  0
    6.8605    2.0264    6.2806 H    0  0  0  0  0  0  0  0  0  0  0  0
    6.2086    1.7356    3.2968 H    0  0  0  0  0  0  0  0  0  0  0  0
    6.6258    0.3895    4.3457 H    0  0  0  0  0  0  0  0  0  0  0  0
    4.6538    0.8920    5.8028 H    0  0  0  0  0  0  0  0  0  0  0  0
    4.2224    0.4830    4.1502 H    0  0  0  0  0  0  0  0  0  0  0  0
    9.0418    2.8822    5.6951 H    0  0  0  0  0  0  0  0  0  0  0  0
    8.8899    1.2600    5.0359 H    0  0  0  0  0  0  0  0  0  0  0  0
    3.9539    2.9414    3.6271 H    0  0  0  0  0  0  0  0  0  0  0  0
    4.2956    3.3243    5.3078 H    0  0  0  0  0  0  0  0  0  0  0  0
    8.4438    2.2180    2.7560 H    0  0  0  0  0  0  0  0  0  0  0  0
    8.5124    3.8450    3.4172 H    0  0  0  0  0  0  0  0  0  0  0  0
    1.9611    1.5874    4.3411 H    0  0  0  0  0  0  0  0  0  0  0  0
    2.3125    1.9480    6.0241 H    0  0  0  0  0  0  0  0  0  0  0  0
   10.9012    3.4592    4.1093 H    0  0  0  0  0  0  0  0  0  0  0  0
   10.8283    1.8281    3.4649 H    0  0  0  0  0  0  0  0  0  0  0  0
    1.6428    4.0427    3.8847 H    0  0  0  0  0  0  0  0  0  0  0  0
    1.9882    4.3991    5.5692 H    0  0  0  0  0  0  0  0  0  0  0  0
   -0.0362    3.0577    6.2757 H    0  0  0  0  0  0  0  0  0  0  0  0
   -0.4846    4.3628    5.1664 H    0  0  0  0  0  0  0  0  0  0  0  0
   -0.3831    2.6956    4.5790 H    0  0  0  0  0  0  0  0  0  0  0  0
   11.3996    4.1323   -0.0426 H    0  0  0  0  0  0  0  0  0  0  0  0
  1  2  1  0  0  0  0
  1  4  1  0  0  0  0
  1 13  1  0  0  0  0
  1 14  1  0  0  0  0
  2  3  1  0  0  0  0
  2 15  1  0  0  0  0
  2 16  1  0  0  0  0
  3  5  1  0  0  0  0
  3 17  1  0  0  0  0
  3 18  1  0  0  0  0
  4  6  1  0  0  0  0
  4 19  1  0  0  0  0
  4 20  1  0  0  0  0
  5  7  1  0  0  0  0
  5 21  1  0  0  0  0
  5 22  1  0  0  0  0
  6  8  1  0  0  0  0
  6 23  1  0  0  0  0
  6 24  1  0  0  0  0
  7  9  1  0  0  0  0
  7 25  1  0  0  0  0
  7 26  1  0  0  0  0
  8 10  1  0  0  0  0
  8 27  1  0  0  0  0
  8 28  1  0  0  0  0
  9 11  1  0  0  0  0
  9 29  1  0  0  0  0
  9 30  1  0  0  0  0
 10 12  3  0  0  0  0
 11 31  1  0  0  0  0
 11 32  1  0  0  0  0
 11 33  1  0  0  0  0
 12 34  1  0  0  0  0
M  END
