  1-EICOSENE.mol	3452-07-1
  NIST    07011523063D 1   1.00000  -786.23004
Copyright by the U.S. Sec. Commerce on behalf of U.S.A. All rights reserved.
 60 59  0  0  0  0  0  0  0  0999 V2000
    6.6810    5.9297    3.9216 C    0  0  0  0  0  0  0  0  0  0  0  0
    5.4529    6.3060    3.0824 C    0  0  0  0  0  0  0  0  0  0  0  0
    4.7173    5.0977    2.4880 C    0  0  0  0  0  0  0  0  0  0  0  0
    7.4327    7.1439    4.4823 C    0  0  0  0  0  0  0  0  0  0  0  0
    3.5048    5.4924    1.6322 C    0  0  0  0  0  0  0  0  0  0  0  0
    8.6654    6.7732    5.3172 C    0  0  0  0  0  0  0  0  0  0  0  0
    2.7934    4.3191    0.9377 C    0  0  0  0  0  0  0  0  0  0  0  0
    9.4366    7.9903    5.8449 C    0  0  0  0  0  0  0  0  0  0  0  0
    2.0774    3.3444    1.8842 C    0  0  0  0  0  0  0  0  0  0  0  0
   10.6637    7.6124    6.6865 C    0  0  0  0  0  0  0  0  0  0  0  0
    1.3455    2.2223    1.1340 C    0  0  0  0  0  0  0  0  0  0  0  0
   11.5298    8.8042    7.1317 C    0  0  0  0  0  0  0  0  0  0  0  0
    0.5031    1.2666    1.9989 C    0  0  0  0  0  0  0  0  0  0  0  0
   10.8485    9.8363    8.0480 C    0  0  0  0  0  0  0  0  0  0  0  0
    1.2954    0.4102    3.0144 C    0  0  0  0  0  0  0  0  0  0  0  0
   10.4054    9.2789    9.4154 C    0  0  0  0  0  0  0  0  0  0  0  0
    1.4175    0.9875    4.4380 C    0  0  0  0  0  0  0  0  0  0  0  0
    9.7774   10.3281   10.2921 C    0  0  0  0  0  0  0  0  0  0  0  0
    0.1030    0.9764    5.2279 C    0  0  0  0  0  0  0  0  0  0  0  0
   10.2346   10.7157   11.4834 C    0  0  0  0  0  0  0  0  0  0  0  0
    7.3694    5.3303    3.3072 H    0  0  0  0  0  0  0  0  0  0  0  0
    6.3702    5.2778    4.7515 H    0  0  0  0  0  0  0  0  0  0  0  0
    5.7638    6.9756    2.2665 H    0  0  0  0  0  0  0  0  0  0  0  0
    4.7544    6.8886    3.7014 H    0  0  0  0  0  0  0  0  0  0  0  0
    5.4183    4.5151    1.8711 H    0  0  0  0  0  0  0  0  0  0  0  0
    4.4030    4.4310    3.3030 H    0  0  0  0  0  0  0  0  0  0  0  0
    7.7415    7.7932    3.6495 H    0  0  0  0  0  0  0  0  0  0  0  0
    6.7460    7.7457    5.0961 H    0  0  0  0  0  0  0  0  0  0  0  0
    2.7808    6.0372    2.2565 H    0  0  0  0  0  0  0  0  0  0  0  0
    3.8370    6.2051    0.8639 H    0  0  0  0  0  0  0  0  0  0  0  0
    9.3413    6.1524    4.7103 H    0  0  0  0  0  0  0  0  0  0  0  0
    8.3553    6.1431    6.1642 H    0  0  0  0  0  0  0  0  0  0  0  0
    3.5227    3.7637    0.3286 H    0  0  0  0  0  0  0  0  0  0  0  0
    2.0562    4.7241    0.2295 H    0  0  0  0  0  0  0  0  0  0  0  0
    9.7579    8.6113    4.9949 H    0  0  0  0  0  0  0  0  0  0  0  0
    8.7544    8.6170    6.4365 H    0  0  0  0  0  0  0  0  0  0  0  0
    1.3558    3.9040    2.4990 H    0  0  0  0  0  0  0  0  0  0  0  0
    2.8023    2.9077    2.5821 H    0  0  0  0  0  0  0  0  0  0  0  0
   10.3386    7.0346    7.5631 H    0  0  0  0  0  0  0  0  0  0  0  0
   11.2963    6.9304    6.1007 H    0  0  0  0  0  0  0  0  0  0  0  0
    2.0822    1.6324    0.5680 H    0  0  0  0  0  0  0  0  0  0  0  0
    0.6848    2.6781    0.3820 H    0  0  0  0  0  0  0  0  0  0  0  0
   12.4237    8.4175    7.6419 H    0  0  0  0  0  0  0  0  0  0  0  0
   11.8953    9.3258    6.2355 H    0  0  0  0  0  0  0  0  0  0  0  0
   -0.0348    0.5958    1.3161 H    0  0  0  0  0  0  0  0  0  0  0  0
   -0.2753    1.8419    2.5198 H    0  0  0  0  0  0  0  0  0  0  0  0
   11.5465   10.6658    8.2214 H    0  0  0  0  0  0  0  0  0  0  0  0
    9.9803   10.2764    7.5383 H    0  0  0  0  0  0  0  0  0  0  0  0
    2.3018    0.2249    2.6124 H    0  0  0  0  0  0  0  0  0  0  0  0
    0.8229   -0.5790    3.0953 H    0  0  0  0  0  0  0  0  0  0  0  0
   11.2687    8.8350    9.9298 H    0  0  0  0  0  0  0  0  0  0  0  0
    9.6829    8.4646    9.2574 H    0  0  0  0  0  0  0  0  0  0  0  0
    1.8090    2.0116    4.3980 H    0  0  0  0  0  0  0  0  0  0  0  0
    2.1637    0.3992    4.9895 H    0  0  0  0  0  0  0  0  0  0  0  0
    8.8811   10.8052    9.8902 H    0  0  0  0  0  0  0  0  0  0  0  0
    0.2451    1.3805    6.2370 H    0  0  0  0  0  0  0  0  0  0  0  0
   -0.6733    1.5777    4.7405 H    0  0  0  0  0  0  0  0  0  0  0  0
   -0.2861   -0.0445    5.3295 H    0  0  0  0  0  0  0  0  0  0  0  0
    9.7374   11.4872   12.0656 H    0  0  0  0  0  0  0  0  0  0  0  0
   11.1251   10.2725   11.9255 H    0  0  0  0  0  0  0  0  0  0  0  0
  1  2  1  0  0  0  0
  1  4  1  0  0  0  0
  1 21  1  0  0  0  0
  1 22  1  0  0  0  0
  2  3  1  0  0  0  0
  2 23  1  0  0  0  0
  2 24  1  0  0  0  0
  3  5  1  0  0  0  0
  3 25  1  0  0  0  0
  3 26  1  0  0  0  0
  4  6  1  0  0  0  0
  4 27  1  0  0  0  0
  4 28  1  0  0  0  0
  5  7  1  0  0  0  0
  5 29  1  0  0  0  0
  5 30  1  0  0  0  0
  6  8  1  0  0  0  0
  6 31  1  0  0  0  0
  6 32  1  0  0  0  0
  7  9  1  0  0  0  0
  7 33  1  0  0  0  0
  7 34  1  0  0  0  0
  8 10  1  0  0  0  0
  8 35  1  0  0  0  0
  8 36  1  0  0  0  0
  9 11  1  0  0  0  0
  9 37  1  0  0  0  0
  9 38  1  0  0  0  0
 10 12  1  0  0  0  0
 10 39  1  0  0  0  0
 10 40  1  0  0  0  0
 11 13  1  0  0  0  0
 11 41  1  0  0  0  0
 11 42  1  0  0  0  0
 12 14  1  0  0  0  0
 12 43  1  0  0  0  0
 12 44  1  0  0  0  0
 13 15  1  0  0  0  0
 13 45  1  0  0  0  0
 13 46  1  0  0  0  0
 14 16  1  0  0  0  0
 14 47  1  0  0  0  0
 14 48  1  0  0  0  0
 15 17  1  0  0  0  0
 15 49  1  0  0  0  0
 15 50  1  0  0  0  0
 16 18  1  0  0  0  0
 16 51  1  0  0  0  0
 16 52  1  0  0  0  0
 17 19  1  0  0  0  0
 17 53  1  0  0  0  0
 17 54  1  0  0  0  0
 18 20  2  0  0  0  0
 18 55  1  0  0  0  0
 19 56  1  0  0  0  0
 19 57  1  0  0  0  0
 19 58  1  0  0  0  0
 20 59  1  0  0  0  0
 20 60  1  0  0  0  0
M  END
