  1-EICOSYNE.mol	765-27-5
  NIST    07081510443D 1   1.00000  -784.98686
Copyright by the U.S. Sec. Commerce on behalf of U.S.A. All rights reserved.
 58 57  0  0  0  0  0  0  0  0999 V2000
  174.0058   10.0501    0.0003 C    0  0  0  0  0  0  0  0  0  0  0  0
  172.6901    9.2607    0.0001 C    0  0  0  0  0  0  0  0  0  0  0  0
  172.8873    7.7394    0.0003 C    0  0  0  0  0  0  0  0  0  0  0  0
  173.8089   11.5714    0.0000 C    0  0  0  0  0  0  0  0  0  0  0  0
  171.5722    6.9490    0.0000 C    0  0  0  0  0  0  0  0  0  0  0  0
  175.1246   12.3607    0.0002 C    0  0  0  0  0  0  0  0  0  0  0  0
  171.7711    5.4280    0.0003 C    0  0  0  0  0  0  0  0  0  0  0  0
  174.9270   13.8819   -0.0000 C    0  0  0  0  0  0  0  0  0  0  0  0
  170.4572    4.6356   -0.0001 C    0  0  0  0  0  0  0  0  0  0  0  0
  176.2428   14.6711    0.0000 C    0  0  0  0  0  0  0  0  0  0  0  0
  170.6586    3.1149    0.0002 C    0  0  0  0  0  0  0  0  0  0  0  0
  176.0437   16.1921   -0.0002 C    0  0  0  0  0  0  0  0  0  0  0  0
  169.3461    2.3204   -0.0002 C    0  0  0  0  0  0  0  0  0  0  0  0
  177.3613   16.9757   -0.0001 C    0  0  0  0  0  0  0  0  0  0  0  0
  169.5491    0.8000    0.0001 C    0  0  0  0  0  0  0  0  0  0  0  0
  177.1429   18.5037   -0.0004 C    0  0  0  0  0  0  0  0  0  0  0  0
  168.2376    0.0041   -0.0004 C    0  0  0  0  0  0  0  0  0  0  0  0
  178.3934   19.2643   -0.0002 C    0  0  0  0  0  0  0  0  0  0  0  0
  168.4496   -1.5132   -0.0001 C    0  0  0  0  0  0  0  0  0  0  0  0
  179.4363   19.8735   -0.0001 C    0  0  0  0  0  0  0  0  0  0  0  0
  174.6020    9.7617    0.8789 H    0  0  0  0  0  0  0  0  0  0  0  0
  174.6024    9.7615   -0.8780 H    0  0  0  0  0  0  0  0  0  0  0  0
  172.0939    9.5491   -0.8785 H    0  0  0  0  0  0  0  0  0  0  0  0
  172.0935    9.5493    0.8783 H    0  0  0  0  0  0  0  0  0  0  0  0
  173.4836    7.4513    0.8789 H    0  0  0  0  0  0  0  0  0  0  0  0
  173.4841    7.4511   -0.8779 H    0  0  0  0  0  0  0  0  0  0  0  0
  173.2127   11.8599   -0.8785 H    0  0  0  0  0  0  0  0  0  0  0  0
  173.2124   11.8601    0.8783 H    0  0  0  0  0  0  0  0  0  0  0  0
  170.9758    7.2369   -0.8786 H    0  0  0  0  0  0  0  0  0  0  0  0
  170.9753    7.2371    0.8783 H    0  0  0  0  0  0  0  0  0  0  0  0
  175.7209   12.0725    0.8788 H    0  0  0  0  0  0  0  0  0  0  0  0
  175.7212   12.0723   -0.8781 H    0  0  0  0  0  0  0  0  0  0  0  0
  172.3678    5.1406    0.8789 H    0  0  0  0  0  0  0  0  0  0  0  0
  172.3684    5.1404   -0.8779 H    0  0  0  0  0  0  0  0  0  0  0  0
  174.3309   14.1702   -0.8787 H    0  0  0  0  0  0  0  0  0  0  0  0
  174.3306   14.1705    0.8783 H    0  0  0  0  0  0  0  0  0  0  0  0
  169.8604    4.9225   -0.8788 H    0  0  0  0  0  0  0  0  0  0  0  0
  169.8598    4.9228    0.8781 H    0  0  0  0  0  0  0  0  0  0  0  0
  176.8391   14.3838    0.8787 H    0  0  0  0  0  0  0  0  0  0  0  0
  176.8394   14.3835   -0.8783 H    0  0  0  0  0  0  0  0  0  0  0  0
  171.2557    2.8285    0.8788 H    0  0  0  0  0  0  0  0  0  0  0  0
  171.2564    2.8283   -0.8779 H    0  0  0  0  0  0  0  0  0  0  0  0
  175.4481   16.4804   -0.8792 H    0  0  0  0  0  0  0  0  0  0  0  0
  175.4478   16.4806    0.8786 H    0  0  0  0  0  0  0  0  0  0  0  0
  168.7488    2.6064   -0.8789 H    0  0  0  0  0  0  0  0  0  0  0  0
  168.7481    2.6066    0.8780 H    0  0  0  0  0  0  0  0  0  0  0  0
  177.9596   16.7024    0.8787 H    0  0  0  0  0  0  0  0  0  0  0  0
  177.9599   16.7022   -0.8786 H    0  0  0  0  0  0  0  0  0  0  0  0
  170.1461    0.5131    0.8788 H    0  0  0  0  0  0  0  0  0  0  0  0
  170.1468    0.5129   -0.8781 H    0  0  0  0  0  0  0  0  0  0  0  0
  176.5446   18.7862   -0.8783 H    0  0  0  0  0  0  0  0  0  0  0  0
  176.5442   18.7864    0.8772 H    0  0  0  0  0  0  0  0  0  0  0  0
  167.6411    0.2898   -0.8787 H    0  0  0  0  0  0  0  0  0  0  0  0
  167.6403    0.2901    0.8773 H    0  0  0  0  0  0  0  0  0  0  0  0
  167.4946   -2.0511   -0.0004 H    0  0  0  0  0  0  0  0  0  0  0  0
  169.0126   -1.8349    0.8849 H    0  0  0  0  0  0  0  0  0  0  0  0
  169.0134   -1.8351   -0.8845 H    0  0  0  0  0  0  0  0  0  0  0  0
  180.3545   20.4153    0.0000 H    0  0  0  0  0  0  0  0  0  0  0  0
  1  2  1  0  0  0  0
  1  4  1  0  0  0  0
  1 21  1  0  0  0  0
  1 22  1  0  0  0  0
  2  3  1  0  0  0  0
  2 23  1  0  0  0  0
  2 24  1  0  0  0  0
  3  5  1  0  0  0  0
  3 25  1  0  0  0  0
  3 26  1  0  0  0  0
  4  6  1  0  0  0  0
  4 27  1  0  0  0  0
  4 28  1  0  0  0  0
  5  7  1  0  0  0  0
  5 29  1  0  0  0  0
  5 30  1  0  0  0  0
  6  8  1  0  0  0  0
  6 31  1  0  0  0  0
  6 32  1  0  0  0  0
  7  9  1  0  0  0  0
  7 33  1  0  0  0  0
  7 34  1  0  0  0  0
  8 10  1  0  0  0  0
  8 35  1  0  0  0  0
  8 36  1  0  0  0  0
  9 11  1  0  0  0  0
  9 37  1  0  0  0  0
  9 38  1  0  0  0  0
 10 12  1  0  0  0  0
 10 39  1  0  0  0  0
 10 40  1  0  0  0  0
 11 13  1  0  0  0  0
 11 41  1  0  0  0  0
 11 42  1  0  0  0  0
 12 14  1  0  0  0  0
 12 43  1  0  0  0  0
 12 44  1  0  0  0  0
 13 15  1  0  0  0  0
 13 45  1  0  0  0  0
 13 46  1  0  0  0  0
 14 16  1  0  0  0  0
 14 47  1  0  0  0  0
 14 48  1  0  0  0  0
 15 17  1  0  0  0  0
 15 49  1  0  0  0  0
 15 50  1  0  0  0  0
 16 18  1  0  0  0  0
 16 51  1  0  0  0  0
 16 52  1  0  0  0  0
 17 19  1  0  0  0  0
 17 53  1  0  0  0  0
 17 54  1  0  0  0  0
 18 20  3  0  0  0  0
 19 55  1  0  0  0  0
 19 56  1  0  0  0  0
 19 57  1  0  0  0  0
 20 58  1  0  0  0  0
M  END
