  1-HEXADECENE.mol	629-73-2
  NIST    07011519033D 1   1.00000  -628.97927
Copyright by the U.S. Sec. Commerce on behalf of U.S.A. All rights reserved.
 48 47  0  0  0  0  0  0  0  0999 V2000
    6.8418    5.6182    7.1879 C    0  0  0  0  0  0  0  0  0  0  0  0
    5.5256    6.3422    7.5168 C    0  0  0  0  0  0  0  0  0  0  0  0
    4.2645    5.6849    6.9359 C    0  0  0  0  0  0  0  0  0  0  0  0
    7.2435    5.6532    5.7063 C    0  0  0  0  0  0  0  0  0  0  0  0
    2.9764    6.4065    7.3568 C    0  0  0  0  0  0  0  0  0  0  0  0
    8.5919    4.9751    5.4294 C    0  0  0  0  0  0  0  0  0  0  0  0
    1.6670    5.8865    6.7357 C    0  0  0  0  0  0  0  0  0  0  0  0
    9.0109    5.0243    3.9543 C    0  0  0  0  0  0  0  0  0  0  0  0
    1.2585    4.4457    7.1177 C    0  0  0  0  0  0  0  0  0  0  0  0
   10.3559    4.3409    3.6776 C    0  0  0  0  0  0  0  0  0  0  0  0
    1.7546    3.3460    6.1659 C    0  0  0  0  0  0  0  0  0  0  0  0
   10.7749    4.4047    2.1961 C    0  0  0  0  0  0  0  0  0  0  0  0
    1.3174    1.9379    6.5906 C    0  0  0  0  0  0  0  0  0  0  0  0
   12.1136    3.7699    1.9348 C    0  0  0  0  0  0  0  0  0  0  0  0
    1.7896    0.8417    5.6299 C    0  0  0  0  0  0  0  0  0  0  0  0
   12.3315    2.7326    1.1255 C    0  0  0  0  0  0  0  0  0  0  0  0
    7.6500    6.0706    7.7803 H    0  0  0  0  0  0  0  0  0  0  0  0
    6.7726    4.5717    7.5214 H    0  0  0  0  0  0  0  0  0  0  0  0
    5.4187    6.3985    8.6096 H    0  0  0  0  0  0  0  0  0  0  0  0
    5.5871    7.3833    7.1657 H    0  0  0  0  0  0  0  0  0  0  0  0
    4.2309    4.6368    7.2638 H    0  0  0  0  0  0  0  0  0  0  0  0
    4.3224    5.6622    5.8387 H    0  0  0  0  0  0  0  0  0  0  0  0
    7.2882    6.7002    5.3701 H    0  0  0  0  0  0  0  0  0  0  0  0
    6.4689    5.1704    5.0949 H    0  0  0  0  0  0  0  0  0  0  0  0
    3.0759    7.4718    7.1017 H    0  0  0  0  0  0  0  0  0  0  0  0
    2.8881    6.3685    8.4531 H    0  0  0  0  0  0  0  0  0  0  0  0
    8.5452    3.9266    5.7593 H    0  0  0  0  0  0  0  0  0  0  0  0
    9.3708    5.4511    6.0437 H    0  0  0  0  0  0  0  0  0  0  0  0
    0.8666    6.5712    7.0461 H    0  0  0  0  0  0  0  0  0  0  0  0
    1.7225    5.9712    5.6402 H    0  0  0  0  0  0  0  0  0  0  0  0
    9.0629    6.0733    3.6263 H    0  0  0  0  0  0  0  0  0  0  0  0
    8.2305    4.5528    3.3386 H    0  0  0  0  0  0  0  0  0  0  0  0
    0.1618    4.3859    7.1552 H    0  0  0  0  0  0  0  0  0  0  0  0
    1.6018    4.2287    8.1404 H    0  0  0  0  0  0  0  0  0  0  0  0
   10.3083    3.2889    3.9911 H    0  0  0  0  0  0  0  0  0  0  0  0
   11.1367    4.8084    4.2954 H    0  0  0  0  0  0  0  0  0  0  0  0
    2.8493    3.3737    6.0876 H    0  0  0  0  0  0  0  0  0  0  0  0
    1.3745    3.5525    5.1541 H    0  0  0  0  0  0  0  0  0  0  0  0
   10.0094    3.9219    1.5740 H    0  0  0  0  0  0  0  0  0  0  0  0
   10.8067    5.4617    1.8881 H    0  0  0  0  0  0  0  0  0  0  0  0
    0.2212    1.9079    6.6705 H    0  0  0  0  0  0  0  0  0  0  0  0
    1.7002    1.7298    7.6000 H    0  0  0  0  0  0  0  0  0  0  0  0
   12.9574    4.2061    2.4735 H    0  0  0  0  0  0  0  0  0  0  0  0
    1.3950    1.0037    4.6191 H    0  0  0  0  0  0  0  0  0  0  0  0
    2.8841    0.8226    5.5570 H    0  0  0  0  0  0  0  0  0  0  0  0
    1.4609   -0.1504    5.9602 H    0  0  0  0  0  0  0  0  0  0  0  0
   13.3243    2.3137    0.9833 H    0  0  0  0  0  0  0  0  0  0  0  0
   11.5224    2.2631    0.5689 H    0  0  0  0  0  0  0  0  0  0  0  0
  1  2  1  0  0  0  0
  1  4  1  0  0  0  0
  1 17  1  0  0  0  0
  1 18  1  0  0  0  0
  2  3  1  0  0  0  0
  2 19  1  0  0  0  0
  2 20  1  0  0  0  0
  3  5  1  0  0  0  0
  3 21  1  0  0  0  0
  3 22  1  0  0  0  0
  4  6  1  0  0  0  0
  4 23  1  0  0  0  0
  4 24  1  0  0  0  0
  5  7  1  0  0  0  0
  5 25  1  0  0  0  0
  5 26  1  0  0  0  0
  6  8  1  0  0  0  0
  6 27  1  0  0  0  0
  6 28  1  0  0  0  0
  7  9  1  0  0  0  0
  7 29  1  0  0  0  0
  7 30  1  0  0  0  0
  8 10  1  0  0  0  0
  8 31  1  0  0  0  0
  8 32  1  0  0  0  0
  9 11  1  0  0  0  0
  9 33  1  0  0  0  0
  9 34  1  0  0  0  0
 10 12  1  0  0  0  0
 10 35  1  0  0  0  0
 10 36  1  0  0  0  0
 11 13  1  0  0  0  0
 11 37  1  0  0  0  0
 11 38  1  0  0  0  0
 12 14  1  0  0  0  0
 12 39  1  0  0  0  0
 12 40  1  0  0  0  0
 13 15  1  0  0  0  0
 13 41  1  0  0  0  0
 13 42  1  0  0  0  0
 14 16  2  0  0  0  0
 14 43  1  0  0  0  0
 15 44  1  0  0  0  0
 15 45  1  0  0  0  0
 15 46  1  0  0  0  0
 16 47  1  0  0  0  0
 16 48  1  0  0  0  0
M  END
