
 OpenBabel06031910113D

 57 56  0  0  0  0  0  0  0  0999 V2000
   -3.3947  -10.5303    0.1928 C   0  0  0  0  0  0  0  0  0  0  0  0
   -2.9846   -9.2979   -0.6080 C   0  0  0  0  0  0  0  0  0  0  0  0
   -2.4154   -8.2074    0.3068 C   0  0  0  0  0  0  0  0  0  0  0  0
   -2.0047   -6.9709   -0.5015 C   0  0  0  0  0  0  0  0  0  0  0  0
   -1.4354   -5.8797    0.4130 C   0  0  0  0  0  0  0  0  0  0  0  0
   -1.0247   -4.6432   -0.3953 C   0  0  0  0  0  0  0  0  0  0  0  0
   -0.4556   -3.5520    0.5192 C   0  0  0  0  0  0  0  0  0  0  0  0
   -0.0451   -2.3154   -0.2891 C   0  0  0  0  0  0  0  0  0  0  0  0
    0.5239   -1.2242    0.6255 C   0  0  0  0  0  0  0  0  0  0  0  0
    0.9342    0.0125   -0.1828 C   0  0  0  0  0  0  0  0  0  0  0  0
    1.5030    1.1038    0.7318 C   0  0  0  0  0  0  0  0  0  0  0  0
    1.9131    2.3406   -0.0764 C   0  0  0  0  0  0  0  0  0  0  0  0
    2.4816    3.4320    0.8383 C   0  0  0  0  0  0  0  0  0  0  0  0
    2.8915    4.6689    0.0301 C   0  0  0  0  0  0  0  0  0  0  0  0
    3.4600    5.7604    0.9448 C   0  0  0  0  0  0  0  0  0  0  0  0
    3.8698    6.9973    0.1367 C   0  0  0  0  0  0  0  0  0  0  0  0
    4.4381    8.0886    1.0518 C   0  0  0  0  0  0  0  0  0  0  0  0
    4.8478    9.3235    0.2500 C   0  0  0  0  0  0  0  0  0  0  0  0
    5.3598   10.2921    1.1217 O   0  0  0  0  0  0  0  0  0  0  0  0
   -3.8023  -11.3018   -0.4938 H   0  0  0  0  0  0  0  0  0  0  0  0
   -2.5165  -10.9554    0.7241 H   0  0  0  0  0  0  0  0  0  0  0  0
   -4.1775  -10.2655    0.9352 H   0  0  0  0  0  0  0  0  0  0  0  0
   -3.8758   -8.9070   -1.1460 H   0  0  0  0  0  0  0  0  0  0  0  0
   -2.2181   -9.5954   -1.3566 H   0  0  0  0  0  0  0  0  0  0  0  0
   -1.5269   -8.6064    0.8443 H   0  0  0  0  0  0  0  0  0  0  0  0
   -3.1859   -7.9174    1.0551 H   0  0  0  0  0  0  0  0  0  0  0  0
   -2.8934   -6.5723   -1.0390 H   0  0  0  0  0  0  0  0  0  0  0  0
   -1.2343   -7.2612   -1.2498 H   0  0  0  0  0  0  0  0  0  0  0  0
   -0.5467   -6.2784    0.9505 H   0  0  0  0  0  0  0  0  0  0  0  0
   -2.2057   -5.5895    1.1614 H   0  0  0  0  0  0  0  0  0  0  0  0
   -1.9134   -4.2446   -0.9328 H   0  0  0  0  0  0  0  0  0  0  0  0
   -0.2543   -4.9334   -1.1436 H   0  0  0  0  0  0  0  0  0  0  0  0
    0.4332   -3.9506    1.0567 H   0  0  0  0  0  0  0  0  0  0  0  0
   -1.2259   -3.2619    1.2675 H   0  0  0  0  0  0  0  0  0  0  0  0
   -0.9338   -1.9169   -0.8266 H   0  0  0  0  0  0  0  0  0  0  0  0
    0.7254   -2.6054   -1.0374 H   0  0  0  0  0  0  0  0  0  0  0  0
    1.4127   -1.6226    1.1630 H   0  0  0  0  0  0  0  0  0  0  0  0
   -0.2465   -0.9342    1.3738 H   0  0  0  0  0  0  0  0  0  0  0  0
    0.0454    0.4109   -0.7203 H   0  0  0  0  0  0  0  0  0  0  0  0
    1.7047   -0.2773   -0.9311 H   0  0  0  0  0  0  0  0  0  0  0  0
    2.3918    0.7056    1.2693 H   0  0  0  0  0  0  0  0  0  0  0  0
    0.7325    1.3936    1.4802 H   0  0  0  0  0  0  0  0  0  0  0  0
    1.0242    2.7389   -0.6139 H   0  0  0  0  0  0  0  0  0  0  0  0
    2.6836    2.0509   -0.8247 H   0  0  0  0  0  0  0  0  0  0  0  0
    3.3706    3.0339    1.3758 H   0  0  0  0  0  0  0  0  0  0  0  0
    1.7111    3.7216    1.5866 H   0  0  0  0  0  0  0  0  0  0  0  0
    2.0026    5.0670   -0.5074 H   0  0  0  0  0  0  0  0  0  0  0  0
    3.6621    4.3793   -0.7182 H   0  0  0  0  0  0  0  0  0  0  0  0
    4.3490    5.3623    1.4823 H   0  0  0  0  0  0  0  0  0  0  0  0
    2.6894    6.0499    1.6931 H   0  0  0  0  0  0  0  0  0  0  0  0
    2.9808    7.3954   -0.4008 H   0  0  0  0  0  0  0  0  0  0  0  0
    4.6404    6.7079   -0.6116 H   0  0  0  0  0  0  0  0  0  0  0  0
    5.3285    7.6947    1.5898 H   0  0  0  0  0  0  0  0  0  0  0  0
    3.6696    8.3819    1.8005 H   0  0  0  0  0  0  0  0  0  0  0  0
    3.9552    9.7295   -0.2772 H   0  0  0  0  0  0  0  0  0  0  0  0
    5.6287    9.0363   -0.4897 H   0  0  0  0  0  0  0  0  0  0  0  0
    5.6090   11.0678    0.5550 H   0  0  0  0  0  0  0  0  0  0  0  0
  1  2  1  0  0  0  0
  1 20  1  0  0  0  0
  1 21  1  0  0  0  0
  1 22  1  0  0  0  0
  2  3  1  0  0  0  0
  2 23  1  0  0  0  0
  2 24  1  0  0  0  0
  3  4  1  0  0  0  0
  3 25  1  0  0  0  0
  3 26  1  0  0  0  0
  4  5  1  0  0  0  0
  4 27  1  0  0  0  0
  4 28  1  0  0  0  0
  5  6  1  0  0  0  0
  5 29  1  0  0  0  0
  5 30  1  0  0  0  0
  6  7  1  0  0  0  0
  6 31  1  0  0  0  0
  6 32  1  0  0  0  0
  7  8  1  0  0  0  0
  7 33  1  0  0  0  0
  7 34  1  0  0  0  0
  8  9  1  0  0  0  0
  8 35  1  0  0  0  0
  8 36  1  0  0  0  0
  9 10  1  0  0  0  0
  9 37  1  0  0  0  0
  9 38  1  0  0  0  0
 10 11  1  0  0  0  0
 10 39  1  0  0  0  0
 10 40  1  0  0  0  0
 11 12  1  0  0  0  0
 11 41  1  0  0  0  0
 11 42  1  0  0  0  0
 12 13  1  0  0  0  0
 12 43  1  0  0  0  0
 12 44  1  0  0  0  0
 13 14  1  0  0  0  0
 13 45  1  0  0  0  0
 13 46  1  0  0  0  0
 14 15  1  0  0  0  0
 14 47  1  0  0  0  0
 14 48  1  0  0  0  0
 15 16  1  0  0  0  0
 15 49  1  0  0  0  0
 15 50  1  0  0  0  0
 16 17  1  0  0  0  0
 16 51  1  0  0  0  0
 16 52  1  0  0  0  0
 17 18  1  0  0  0  0
 17 53  1  0  0  0  0
 17 54  1  0  0  0  0
 18 19  1  0  0  0  0
 18 55  1  0  0  0  0
 18 56  1  0  0  0  0
 19 57  1  0  0  0  0
M  END
