  1-PENTAETHYLBENZENE.mol	605-01-6
  NIST    07031501273D 1   1.00000  -625.38445
Copyright by the U.S. Sec. Commerce on behalf of U.S.A. All rights reserved.
 42 42  0  0  0  0  0  0  0  0999 V2000
    4.3878    3.8798    1.6139 C    0  0  0  0  0  0  0  0  0  0  0  0
    3.1531    3.3439    2.0725 C    0  0  0  0  0  0  0  0  0  0  0  0
    2.2886    4.1203    2.8865 C    0  0  0  0  0  0  0  0  0  0  0  0
    2.7440    1.9305    1.6648 C    0  0  0  0  0  0  0  0  0  0  0  0
    4.7477    5.1953    1.9745 C    0  0  0  0  0  0  0  0  0  0  0  0
    5.3190    3.0703    0.7173 C    0  0  0  0  0  0  0  0  0  0  0  0
    3.8840    5.9301    2.7873 C    0  0  0  0  0  0  0  0  0  0  0  0
    6.0283    5.8869    1.5291 C    0  0  0  0  0  0  0  0  0  0  0  0
    2.6727    5.4280    3.2551 C    0  0  0  0  0  0  0  0  0  0  0  0
    1.8080    6.3476    4.1031 C    0  0  0  0  0  0  0  0  0  0  0  0
    0.9512    3.5887    3.3899 C    0  0  0  0  0  0  0  0  0  0  0  0
    7.0386    6.1055    2.6707 C    0  0  0  0  0  0  0  0  0  0  0  0
    6.5943    2.5465    1.4064 C    0  0  0  0  0  0  0  0  0  0  0  0
    3.4519    0.7934    2.4267 C    0  0  0  0  0  0  0  0  0  0  0  0
    1.0476    2.7909    4.7038 C    0  0  0  0  0  0  0  0  0  0  0  0
    0.8150    7.1862    3.2764 C    0  0  0  0  0  0  0  0  0  0  0  0
    2.9106    1.7903    0.5903 H    0  0  0  0  0  0  0  0  0  0  0  0
    1.6687    1.8020    1.7994 H    0  0  0  0  0  0  0  0  0  0  0  0
    4.7881    2.2174    0.2904 H    0  0  0  0  0  0  0  0  0  0  0  0
    5.6157    3.6823   -0.1440 H    0  0  0  0  0  0  0  0  0  0  0  0
    4.1646    6.9470    3.0602 H    0  0  0  0  0  0  0  0  0  0  0  0
    6.5170    5.3381    0.7198 H    0  0  0  0  0  0  0  0  0  0  0  0
    5.7647    6.8677    1.1100 H    0  0  0  0  0  0  0  0  0  0  0  0
    1.2622    5.7846    4.8679 H    0  0  0  0  0  0  0  0  0  0  0  0
    2.4674    7.0325    4.6508 H    0  0  0  0  0  0  0  0  0  0  0  0
    0.2650    4.4258    3.5448 H    0  0  0  0  0  0  0  0  0  0  0  0
    0.4669    2.9670    2.6306 H    0  0  0  0  0  0  0  0  0  0  0  0
    7.3503    5.1544    3.1159 H    0  0  0  0  0  0  0  0  0  0  0  0
    6.6046    6.7142    3.4716 H    0  0  0  0  0  0  0  0  0  0  0  0
    7.9344    6.6206    2.3042 H    0  0  0  0  0  0  0  0  0  0  0  0
    7.1730    1.9206    0.7165 H    0  0  0  0  0  0  0  0  0  0  0  0
    7.2427    3.3624    1.7379 H    0  0  0  0  0  0  0  0  0  0  0  0
    6.3532    1.9442    2.2885 H    0  0  0  0  0  0  0  0  0  0  0  0
    4.5271    0.7745    2.2294 H    0  0  0  0  0  0  0  0  0  0  0  0
    3.3196    0.8977    3.5088 H    0  0  0  0  0  0  0  0  0  0  0  0
    3.0415   -0.1790    2.1289 H    0  0  0  0  0  0  0  0  0  0  0  0
    0.0533    2.4772    5.0435 H    0  0  0  0  0  0  0  0  0  0  0  0
    1.6610    1.8926    4.5835 H    0  0  0  0  0  0  0  0  0  0  0  0
    1.5025    3.3942    5.4977 H    0  0  0  0  0  0  0  0  0  0  0  0
    1.3461    7.8036    2.5433 H    0  0  0  0  0  0  0  0  0  0  0  0
    0.1136    6.5515    2.7230 H    0  0  0  0  0  0  0  0  0  0  0  0
    0.2310    7.8520    3.9229 H    0  0  0  0  0  0  0  0  0  0  0  0
  1  2  2  0  0  0  0
  1  6  1  0  0  0  0
  2  3  1  0  0  0  0
  2  4  1  0  0  0  0
  3  9  2  0  0  0  0
  3 11  1  0  0  0  0
  4 14  1  0  0  0  0
  4 17  1  0  0  0  0
  4 18  1  0  0  0  0
  5  1  1  0  0  0  0
  5  8  1  0  0  0  0
  6 13  1  0  0  0  0
  6 19  1  0  0  0  0
  6 20  1  0  0  0  0
  7  5  2  0  0  0  0
  7 21  1  0  0  0  0
  8 12  1  0  0  0  0
  8 22  1  0  0  0  0
  8 23  1  0  0  0  0
  9  7  1  0  0  0  0
  9 10  1  0  0  0  0
 10 16  1  0  0  0  0
 10 24  1  0  0  0  0
 10 25  1  0  0  0  0
 11 15  1  0  0  0  0
 11 26  1  0  0  0  0
 11 27  1  0  0  0  0
 12 28  1  0  0  0  0
 12 29  1  0  0  0  0
 12 30  1  0  0  0  0
 13 31  1  0  0  0  0
 13 32  1  0  0  0  0
 13 33  1  0  0  0  0
 14 34  1  0  0  0  0
 14 35  1  0  0  0  0
 14 36  1  0  0  0  0
 15 37  1  0  0  0  0
 15 38  1  0  0  0  0
 15 39  1  0  0  0  0
 16 40  1  0  0  0  0
 16 41  1  0  0  0  0
 16 42  1  0  0  0  0
M  END
