
 OpenBabel06031910193D

 45 44  0  0  0  0  0  0  0  0999 V2000
    0.0609   -1.1946   -0.3519 C   0  0  0  0  0  0  0  0  0  0  0  0
    0.2141    0.1965    0.2562 C   0  0  0  0  0  0  0  0  0  0  0  0
    1.3345    0.9823   -0.4347 C   0  0  0  0  0  0  0  0  0  0  0  0
    1.4852    2.3793    0.1791 C   0  0  0  0  0  0  0  0  0  0  0  0
    2.6056    3.1659   -0.5116 C   0  0  0  0  0  0  0  0  0  0  0  0
    2.7562    4.5630    0.1022 C   0  0  0  0  0  0  0  0  0  0  0  0
    3.8765    5.3496   -0.5886 C   0  0  0  0  0  0  0  0  0  0  0  0
    4.0269    6.7468    0.0250 C   0  0  0  0  0  0  0  0  0  0  0  0
    7.8407   13.2949   -0.2131 C   0  0  0  0  0  0  0  0  0  0  0  0
    7.6878   11.9014   -0.8216 C   0  0  0  0  0  0  0  0  0  0  0  0
    8.8709   13.9768   -0.8717 O   0  0  0  0  0  0  0  0  0  0  0  0
    6.5677   11.1148   -0.1302 C   0  0  0  0  0  0  0  0  0  0  0  0
    6.4174    9.7175   -0.7435 C   0  0  0  0  0  0  0  0  0  0  0  0
    5.2974    8.9307   -0.0525 C   0  0  0  0  0  0  0  0  0  0  0  0
    5.1471    7.5335   -0.6659 C   0  0  0  0  0  0  0  0  0  0  0  0
   -0.7556   -1.7398    0.1667 H   0  0  0  0  0  0  0  0  0  0  0  0
    1.0030   -1.7721   -0.2372 H   0  0  0  0  0  0  0  0  0  0  0  0
   -0.1916   -1.1186   -1.4311 H   0  0  0  0  0  0  0  0  0  0  0  0
   -0.7479    0.7433    0.1475 H   0  0  0  0  0  0  0  0  0  0  0  0
    0.4442    0.0911    1.3390 H   0  0  0  0  0  0  0  0  0  0  0  0
    2.2928    0.4279   -0.3252 H   0  0  0  0  0  0  0  0  0  0  0  0
    1.0996    1.0806   -1.5177 H   0  0  0  0  0  0  0  0  0  0  0  0
    0.5267    2.9333    0.0697 H   0  0  0  0  0  0  0  0  0  0  0  0
    1.7199    2.2808    1.2621 H   0  0  0  0  0  0  0  0  0  0  0  0
    2.3709    3.2644   -1.5945 H   0  0  0  0  0  0  0  0  0  0  0  0
    3.5641    2.6119   -0.4021 H   0  0  0  0  0  0  0  0  0  0  0  0
    2.9910    4.4646    1.1851 H   0  0  0  0  0  0  0  0  0  0  0  0
    1.7977    5.1169   -0.0073 H   0  0  0  0  0  0  0  0  0  0  0  0
    3.6417    5.4480   -1.6716 H   0  0  0  0  0  0  0  0  0  0  0  0
    4.8351    4.7957   -0.4791 H   0  0  0  0  0  0  0  0  0  0  0  0
    4.2617    6.6485    1.1080 H   0  0  0  0  0  0  0  0  0  0  0  0
    3.0683    7.3006   -0.0845 H   0  0  0  0  0  0  0  0  0  0  0  0
    6.8853   13.8535   -0.3347 H   0  0  0  0  0  0  0  0  0  0  0  0
    8.0889   13.1964    0.8677 H   0  0  0  0  0  0  0  0  0  0  0  0
    7.4554   12.0029   -1.9046 H   0  0  0  0  0  0  0  0  0  0  0  0
    8.6486   11.3515   -0.7126 H   0  0  0  0  0  0  0  0  0  0  0  0
    8.9286   14.8695   -0.4418 H   0  0  0  0  0  0  0  0  0  0  0  0
    6.8026   11.0167    0.9528 H   0  0  0  0  0  0  0  0  0  0  0  0
    5.6089   11.6685   -0.2396 H   0  0  0  0  0  0  0  0  0  0  0  0
    7.3761    9.1639   -0.6340 H   0  0  0  0  0  0  0  0  0  0  0  0
    6.1825    9.8156   -1.8264 H   0  0  0  0  0  0  0  0  0  0  0  0
    5.5322    8.8325    1.0305 H   0  0  0  0  0  0  0  0  0  0  0  0
    4.3387    9.4844   -0.1619 H   0  0  0  0  0  0  0  0  0  0  0  0
    6.1057    6.9797   -0.5564 H   0  0  0  0  0  0  0  0  0  0  0  0
    4.9123    7.6317   -1.7489 H   0  0  0  0  0  0  0  0  0  0  0  0
  1  2  1  0  0  0  0
  1 16  1  0  0  0  0
  1 17  1  0  0  0  0
  1 18  1  0  0  0  0
  2  3  1  0  0  0  0
  2 19  1  0  0  0  0
  2 20  1  0  0  0  0
  3  4  1  0  0  0  0
  3 21  1  0  0  0  0
  3 22  1  0  0  0  0
  4  5  1  0  0  0  0
  4 23  1  0  0  0  0
  4 24  1  0  0  0  0
  5  6  1  0  0  0  0
  5 25  1  0  0  0  0
  5 26  1  0  0  0  0
  6  7  1  0  0  0  0
  6 27  1  0  0  0  0
  6 28  1  0  0  0  0
  7  8  1  0  0  0  0
  7 29  1  0  0  0  0
  7 30  1  0  0  0  0
  8 15  1  0  0  0  0
  8 31  1  0  0  0  0
  8 32  1  0  0  0  0
  9 10  1  0  0  0  0
  9 11  1  0  0  0  0
  9 33  1  0  0  0  0
  9 34  1  0  0  0  0
 10 12  1  0  0  0  0
 10 35  1  0  0  0  0
 10 36  1  0  0  0  0
 11 37  1  0  0  0  0
 12 13  1  0  0  0  0
 12 38  1  0  0  0  0
 12 39  1  0  0  0  0
 13 14  1  0  0  0  0
 13 40  1  0  0  0  0
 13 41  1  0  0  0  0
 14 15  1  0  0  0  0
 14 42  1  0  0  0  0
 14 43  1  0  0  0  0
 15 44  1  0  0  0  0
 15 45  1  0  0  0  0
M  END
