  1-TETRADECYNE.mol	765-10-6
  NIST    07011511403D 1   1.00000  -549.10445
Copyright by the U.S. Sec. Commerce on behalf of U.S.A. All rights reserved.
 40 39  0  0  0  0  0  0  0  0999 V2000
    0.2779    8.1832    0.2532 C    0  0  0  0  0  0  0  0  0  0  0  0
    0.8380    7.1799    0.6251 C    0  0  0  0  0  0  0  0  0  0  0  0
    1.5266    5.9764    1.0938 C    0  0  0  0  0  0  0  0  0  0  0  0
    2.4201    6.2269    2.3275 C    0  0  0  0  0  0  0  0  0  0  0  0
    3.1265    4.9543    2.8084 C    0  0  0  0  0  0  0  0  0  0  0  0
    4.0170    5.1808    4.0370 C    0  0  0  0  0  0  0  0  0  0  0  0
    4.7180    3.9067    4.5257 C    0  0  0  0  0  0  0  0  0  0  0  0
    5.6045    4.1283    5.7582 C    0  0  0  0  0  0  0  0  0  0  0  0
    6.2980    2.8516    6.2508 C    0  0  0  0  0  0  0  0  0  0  0  0
    7.1799    3.0690    7.4872 C    0  0  0  0  0  0  0  0  0  0  0  0
    7.8674    1.7898    7.9817 C    0  0  0  0  0  0  0  0  0  0  0  0
    8.7452    2.0028    9.2216 C    0  0  0  0  0  0  0  0  0  0  0  0
    9.4294    0.7220    9.7163 C    0  0  0  0  0  0  0  0  0  0  0  0
   10.3007    0.9409   10.9573 C    0  0  0  0  0  0  0  0  0  0  0  0
   -0.2185    9.0665   -0.0785 H    0  0  0  0  0  0  0  0  0  0  0  0
    2.1386    5.5656    0.2782 H    0  0  0  0  0  0  0  0  0  0  0  0
    0.7843    5.2020    1.3340 H    0  0  0  0  0  0  0  0  0  0  0  0
    1.8031    6.6407    3.1354 H    0  0  0  0  0  0  0  0  0  0  0  0
    3.1620    6.9969    2.0795 H    0  0  0  0  0  0  0  0  0  0  0  0
    3.7349    4.5433    1.9889 H    0  0  0  0  0  0  0  0  0  0  0  0
    2.3738    4.1866    3.0424 H    0  0  0  0  0  0  0  0  0  0  0  0
    3.4088    5.5967    4.8538 H    0  0  0  0  0  0  0  0  0  0  0  0
    4.7725    5.9450    3.8020 H    0  0  0  0  0  0  0  0  0  0  0  0
    5.3279    3.4918    3.7094 H    0  0  0  0  0  0  0  0  0  0  0  0
    3.9610    3.1424    4.7565 H    0  0  0  0  0  0  0  0  0  0  0  0
    4.9949    4.5473    6.5727 H    0  0  0  0  0  0  0  0  0  0  0  0
    6.3647    4.8892    5.5269 H    0  0  0  0  0  0  0  0  0  0  0  0
    5.5367    2.0904    6.4781 H    0  0  0  0  0  0  0  0  0  0  0  0
    6.9097    2.4338    5.4373 H    0  0  0  0  0  0  0  0  0  0  0  0
    7.9437    3.8276    7.2599 H    0  0  0  0  0  0  0  0  0  0  0  0
    6.5684    3.4894    8.2996 H    0  0  0  0  0  0  0  0  0  0  0  0
    7.1028    1.0307    8.2053 H    0  0  0  0  0  0  0  0  0  0  0  0
    8.4810    1.3708    7.1702 H    0  0  0  0  0  0  0  0  0  0  0  0
    8.1322    2.4223   10.0335 H    0  0  0  0  0  0  0  0  0  0  0  0
    9.5117    2.7604    8.9992 H    0  0  0  0  0  0  0  0  0  0  0  0
    8.6632   -0.0352    9.9363 H    0  0  0  0  0  0  0  0  0  0  0  0
   10.0442    0.3043    8.9062 H    0  0  0  0  0  0  0  0  0  0  0  0
    9.7067    1.3244   11.7962 H    0  0  0  0  0  0  0  0  0  0  0  0
   10.7743    0.0080   11.2843 H    0  0  0  0  0  0  0  0  0  0  0  0
   11.0984    1.6675   10.7590 H    0  0  0  0  0  0  0  0  0  0  0  0
  1  2  3  0  0  0  0
  1 15  1  0  0  0  0
  2  3  1  0  0  0  0
  3  4  1  0  0  0  0
  3 16  1  0  0  0  0
  3 17  1  0  0  0  0
  4  5  1  0  0  0  0
  4 18  1  0  0  0  0
  4 19  1  0  0  0  0
  5  6  1  0  0  0  0
  5 20  1  0  0  0  0
  5 21  1  0  0  0  0
  6  7  1  0  0  0  0
  6 22  1  0  0  0  0
  6 23  1  0  0  0  0
  7  8  1  0  0  0  0
  7 24  1  0  0  0  0
  7 25  1  0  0  0  0
  8  9  1  0  0  0  0
  8 26  1  0  0  0  0
  8 27  1  0  0  0  0
  9 10  1  0  0  0  0
  9 28  1  0  0  0  0
  9 29  1  0  0  0  0
 10 11  1  0  0  0  0
 10 30  1  0  0  0  0
 10 31  1  0  0  0  0
 11 12  1  0  0  0  0
 11 32  1  0  0  0  0
 11 33  1  0  0  0  0
 12 13  1  0  0  0  0
 12 34  1  0  0  0  0
 12 35  1  0  0  0  0
 13 14  1  0  0  0  0
 13 36  1  0  0  0  0
 13 37  1  0  0  0  0
 14 38  1  0  0  0  0
 14 39  1  0  0  0  0
 14 40  1  0  0  0  0
M  END
