  1-TRIDECENE.mol	2437-56-1
  NIST    07011520283D 1   1.00000  -511.04034
Copyright by the U.S. Sec. Commerce on behalf of U.S.A. All rights reserved.
 39 38  0  0  0  0  0  0  0  0999 V2000
    4.5255    4.0885    2.3482 C    0  0  0  0  0  0  0  0  0  0  0  0
    5.7206    4.6061    1.5355 C    0  0  0  0  0  0  0  0  0  0  0  0
    6.5822    3.5104    0.8825 C    0  0  0  0  0  0  0  0  0  0  0  0
    3.6422    5.2158    2.8996 C    0  0  0  0  0  0  0  0  0  0  0  0
    7.2719    2.5273    1.8445 C    0  0  0  0  0  0  0  0  0  0  0  0
    2.4419    4.7191    3.7164 C    0  0  0  0  0  0  0  0  0  0  0  0
    8.2861    3.1748    2.7970 C    0  0  0  0  0  0  0  0  0  0  0  0
    1.5688    5.8597    4.2585 C    0  0  0  0  0  0  0  0  0  0  0  0
    9.0370    2.1578    3.6829 C    0  0  0  0  0  0  0  0  0  0  0  0
    0.3137    5.4042    5.0216 C    0  0  0  0  0  0  0  0  0  0  0  0
    8.1505    1.4492    4.6719 C    0  0  0  0  0  0  0  0  0  0  0  0
    0.6021    4.6517    6.3263 C    0  0  0  0  0  0  0  0  0  0  0  0
    7.9681    0.1299    4.7453 C    0  0  0  0  0  0  0  0  0  0  0  0
    4.8793    3.4688    3.1840 H    0  0  0  0  0  0  0  0  0  0  0  0
    3.9165    3.4251    1.7156 H    0  0  0  0  0  0  0  0  0  0  0  0
    5.3460    5.2671    0.7407 H    0  0  0  0  0  0  0  0  0  0  0  0
    6.3462    5.2415    2.1781 H    0  0  0  0  0  0  0  0  0  0  0  0
    5.9520    2.9352    0.1891 H    0  0  0  0  0  0  0  0  0  0  0  0
    7.3503    3.9946    0.2619 H    0  0  0  0  0  0  0  0  0  0  0  0
    3.2813    5.8345    2.0644 H    0  0  0  0  0  0  0  0  0  0  0  0
    4.2547    5.8824    3.5253 H    0  0  0  0  0  0  0  0  0  0  0  0
    6.5223    1.9792    2.4290 H    0  0  0  0  0  0  0  0  0  0  0  0
    7.7928    1.7669    1.2447 H    0  0  0  0  0  0  0  0  0  0  0  0
    2.8061    4.0980    4.5464 H    0  0  0  0  0  0  0  0  0  0  0  0
    1.8243    4.0579    3.0897 H    0  0  0  0  0  0  0  0  0  0  0  0
    7.7827    3.9060    3.4447 H    0  0  0  0  0  0  0  0  0  0  0  0
    9.0234    3.7426    2.2120 H    0  0  0  0  0  0  0  0  0  0  0  0
    2.1771    6.5008    4.9144 H    0  0  0  0  0  0  0  0  0  0  0  0
    1.2586    6.4958    3.4170 H    0  0  0  0  0  0  0  0  0  0  0  0
    9.5450    1.4191    3.0483 H    0  0  0  0  0  0  0  0  0  0  0  0
    9.8253    2.6944    4.2323 H    0  0  0  0  0  0  0  0  0  0  0  0
   -0.2985    6.2876    5.2485 H    0  0  0  0  0  0  0  0  0  0  0  0
   -0.2990    4.7715    4.3632 H    0  0  0  0  0  0  0  0  0  0  0  0
    7.6212    2.0946    5.3767 H    0  0  0  0  0  0  0  0  0  0  0  0
    1.1407    3.7147    6.1467 H    0  0  0  0  0  0  0  0  0  0  0  0
   -0.3274    4.4008    6.8502 H    0  0  0  0  0  0  0  0  0  0  0  0
    1.2127    5.2602    7.0054 H    0  0  0  0  0  0  0  0  0  0  0  0
    8.4715   -0.5546    4.0651 H    0  0  0  0  0  0  0  0  0  0  0  0
    7.3148   -0.3190    5.4890 H    0  0  0  0  0  0  0  0  0  0  0  0
  1  2  1  0  0  0  0
  1  4  1  0  0  0  0
  1 14  1  0  0  0  0
  1 15  1  0  0  0  0
  2  3  1  0  0  0  0
  2 16  1  0  0  0  0
  2 17  1  0  0  0  0
  3  5  1  0  0  0  0
  3 18  1  0  0  0  0
  3 19  1  0  0  0  0
  4  6  1  0  0  0  0
  4 20  1  0  0  0  0
  4 21  1  0  0  0  0
  5  7  1  0  0  0  0
  5 22  1  0  0  0  0
  5 23  1  0  0  0  0
  6  8  1  0  0  0  0
  6 24  1  0  0  0  0
  6 25  1  0  0  0  0
  7  9  1  0  0  0  0
  7 26  1  0  0  0  0
  7 27  1  0  0  0  0
  8 10  1  0  0  0  0
  8 28  1  0  0  0  0
  8 29  1  0  0  0  0
  9 11  1  0  0  0  0
  9 30  1  0  0  0  0
  9 31  1  0  0  0  0
 10 12  1  0  0  0  0
 10 32  1  0  0  0  0
 10 33  1  0  0  0  0
 11 13  2  0  0  0  0
 11 34  1  0  0  0  0
 12 35  1  0  0  0  0
 12 36  1  0  0  0  0
 12 37  1  0  0  0  0
 13 38  1  0  0  0  0
 13 39  1  0  0  0  0
M  END
