  2,2,5,5-TETRAMETHYLHEXANE.mol	1071-81-4
  NIST    07011515383D 1   1.00000  -394.33589
Copyright by the U.S. Sec. Commerce on behalf of U.S.A. All rights reserved.
 32 31  0  0  0  0  0  0  0  0999 V2000
    3.3464    1.4945    2.2982 C    0  0  0  0  0  0  0  0  0  0  0  0
    4.3967    2.5708    1.9801 C    0  0  0  0  0  0  0  0  0  0  0  0
    5.8825    2.1134    1.9750 C    0  0  0  0  0  0  0  0  0  0  0  0
    6.3041    1.5809    3.3589 C    0  0  0  0  0  0  0  0  0  0  0  0
    6.7507    3.3413    1.6333 C    0  0  0  0  0  0  0  0  0  0  0  0
    6.1251    1.0259    0.9098 C    0  0  0  0  0  0  0  0  0  0  0  0
    1.8606    1.9519    2.3034 C    0  0  0  0  0  0  0  0  0  0  0  0
    1.4389    2.4845    0.9196 C    0  0  0  0  0  0  0  0  0  0  0  0
    0.9924    0.7241    2.6453 C    0  0  0  0  0  0  0  0  0  0  0  0
    1.6182    3.0394    3.3686 C    0  0  0  0  0  0  0  0  0  0  0  0
    3.5611    1.0572    3.2829 H    0  0  0  0  0  0  0  0  0  0  0  0
    3.4376    0.6731    1.5745 H    0  0  0  0  0  0  0  0  0  0  0  0
    4.3054    3.3923    2.7037 H    0  0  0  0  0  0  0  0  0  0  0  0
    4.1820    3.0080    0.9953 H    0  0  0  0  0  0  0  0  0  0  0  0
    7.3744    1.3404    3.3715 H    0  0  0  0  0  0  0  0  0  0  0  0
    5.7609    0.6693    3.6313 H    0  0  0  0  0  0  0  0  0  0  0  0
    6.1221    2.3273    4.1426 H    0  0  0  0  0  0  0  0  0  0  0  0
    7.8156    3.0786    1.6146 H    0  0  0  0  0  0  0  0  0  0  0  0
    6.6168    4.1407    2.3728 H    0  0  0  0  0  0  0  0  0  0  0  0
    6.4900    3.7497    0.6489 H    0  0  0  0  0  0  0  0  0  0  0  0
    7.1905    0.7713    0.8525 H    0  0  0  0  0  0  0  0  0  0  0  0
    5.8112    1.3681   -0.0845 H    0  0  0  0  0  0  0  0  0  0  0  0
    5.5797    0.1026    1.1346 H    0  0  0  0  0  0  0  0  0  0  0  0
    0.3687    2.7253    0.9071 H    0  0  0  0  0  0  0  0  0  0  0  0
    1.6206    1.7380    0.1359 H    0  0  0  0  0  0  0  0  0  0  0  0
    1.9824    3.3959    0.6471 H    0  0  0  0  0  0  0  0  0  0  0  0
    1.1264   -0.0753    1.9058 H    0  0  0  0  0  0  0  0  0  0  0  0
   -0.0725    0.9868    2.6639 H    0  0  0  0  0  0  0  0  0  0  0  0
    1.2531    0.3157    3.6297 H    0  0  0  0  0  0  0  0  0  0  0  0
    0.5527    3.2939    3.4262 H    0  0  0  0  0  0  0  0  0  0  0  0
    2.1634    3.9628    3.1437 H    0  0  0  0  0  0  0  0  0  0  0  0
    1.9324    2.6973    4.3629 H    0  0  0  0  0  0  0  0  0  0  0  0
  1  2  1  0  0  0  0
  1  7  1  0  0  0  0
  1 11  1  0  0  0  0
  1 12  1  0  0  0  0
  2  3  1  0  0  0  0
  2 13  1  0  0  0  0
  2 14  1  0  0  0  0
  3  4  1  0  0  0  0
  3  5  1  0  0  0  0
  3  6  1  0  0  0  0
  4 15  1  0  0  0  0
  4 16  1  0  0  0  0
  4 17  1  0  0  0  0
  5 18  1  0  0  0  0
  5 19  1  0  0  0  0
  5 20  1  0  0  0  0
  6 21  1  0  0  0  0
  6 22  1  0  0  0  0
  6 23  1  0  0  0  0
  7  8  1  0  0  0  0
  7  9  1  0  0  0  0
  7 10  1  0  0  0  0
  8 24  1  0  0  0  0
  8 25  1  0  0  0  0
  8 26  1  0  0  0  0
  9 27  1  0  0  0  0
  9 28  1  0  0  0  0
  9 29  1  0  0  0  0
 10 30  1  0  0  0  0
 10 31  1  0  0  0  0
 10 32  1  0  0  0  0
M  END
