  2,2-DIMETHYLOCTANE.mol	15869-87-1
  NIST    07011513413D 1   1.00000  -394.33306
Copyright by the U.S. Sec. Commerce on behalf of U.S.A. All rights reserved.
 32 31  0  0  0  0  0  0  0  0999 V2000
    0.6411    2.5399    1.1665 C    0  0  0  0  0  0  0  0  0  0  0  0
    0.7422    1.6368    2.4019 C    0  0  0  0  0  0  0  0  0  0  0  0
    2.0531    0.8390    2.5025 C    0  0  0  0  0  0  0  0  0  0  0  0
    3.3136    1.6944    2.6914 C    0  0  0  0  0  0  0  0  0  0  0  0
    4.5841    0.8540    2.8979 C    0  0  0  0  0  0  0  0  0  0  0  0
    5.8794    1.6794    3.0880 C    0  0  0  0  0  0  0  0  0  0  0  0
    6.7973    1.8797    1.8496 C    0  0  0  0  0  0  0  0  0  0  0  0
    7.4110    0.5340    1.4136 C    0  0  0  0  0  0  0  0  0  0  0  0
    7.9390    2.8331    2.2548 C    0  0  0  0  0  0  0  0  0  0  0  0
    6.0302    2.4981    0.6657 C    0  0  0  0  0  0  0  0  0  0  0  0
    0.7585    1.9588    0.2430 H    0  0  0  0  0  0  0  0  0  0  0  0
    1.4108    3.3196    1.1669 H    0  0  0  0  0  0  0  0  0  0  0  0
   -0.3333    3.0400    1.1224 H    0  0  0  0  0  0  0  0  0  0  0  0
   -0.0987    0.9301    2.3951 H    0  0  0  0  0  0  0  0  0  0  0  0
    0.6196    2.2451    3.3096 H    0  0  0  0  0  0  0  0  0  0  0  0
    2.1675    0.2182    1.6008 H    0  0  0  0  0  0  0  0  0  0  0  0
    1.9740    0.1364    3.3448 H    0  0  0  0  0  0  0  0  0  0  0  0
    3.1765    2.3513    3.5638 H    0  0  0  0  0  0  0  0  0  0  0  0
    3.4457    2.3596    1.8294 H    0  0  0  0  0  0  0  0  0  0  0  0
    4.6954    0.1553    2.0575 H    0  0  0  0  0  0  0  0  0  0  0  0
    4.4310    0.2213    3.7828 H    0  0  0  0  0  0  0  0  0  0  0  0
    6.4932    1.2086    3.8683 H    0  0  0  0  0  0  0  0  0  0  0  0
    5.6097    2.6698    3.4835 H    0  0  0  0  0  0  0  0  0  0  0  0
    6.6443   -0.1897    1.1136 H    0  0  0  0  0  0  0  0  0  0  0  0
    8.0833    0.6718    0.5577 H    0  0  0  0  0  0  0  0  0  0  0  0
    7.9942    0.0848    2.2272 H    0  0  0  0  0  0  0  0  0  0  0  0
    8.6403    2.9848    1.4249 H    0  0  0  0  0  0  0  0  0  0  0  0
    8.5074    2.4328    3.1036 H    0  0  0  0  0  0  0  0  0  0  0  0
    7.5492    3.8160    2.5469 H    0  0  0  0  0  0  0  0  0  0  0  0
    5.2281    1.8406    0.3122 H    0  0  0  0  0  0  0  0  0  0  0  0
    6.7051    2.6757   -0.1811 H    0  0  0  0  0  0  0  0  0  0  0  0
    5.5815    3.4608    0.9401 H    0  0  0  0  0  0  0  0  0  0  0  0
  1  2  1  0  0  0  0
  1 11  1  0  0  0  0
  1 12  1  0  0  0  0
  1 13  1  0  0  0  0
  2  3  1  0  0  0  0
  2 14  1  0  0  0  0
  2 15  1  0  0  0  0
  3  4  1  0  0  0  0
  3 16  1  0  0  0  0
  3 17  1  0  0  0  0
  4  5  1  0  0  0  0
  4 18  1  0  0  0  0
  4 19  1  0  0  0  0
  5  6  1  0  0  0  0
  5 20  1  0  0  0  0
  5 21  1  0  0  0  0
  6  7  1  0  0  0  0
  6 22  1  0  0  0  0
  6 23  1  0  0  0  0
  7  8  1  0  0  0  0
  7  9  1  0  0  0  0
  7 10  1  0  0  0  0
  8 24  1  0  0  0  0
  8 25  1  0  0  0  0
  8 26  1  0  0  0  0
  9 27  1  0  0  0  0
  9 28  1  0  0  0  0
  9 29  1  0  0  0  0
 10 30  1  0  0  0  0
 10 31  1  0  0  0  0
 10 32  1  0  0  0  0
M  END
