  2,6-DI-TERT-BUTYL-P-CRESOL.mol	128-37-0
  NIST    08011311463D 1   1.00000     0.00000
Copyright by the U.S. Sec. Commerce on behalf of U.S.A. All rights reserved.
 40 40  0  0  0  0  0  0  0  0999 V2000
    6.3848    1.9106   -0.6047 C    0  0  0  0  0  0  0  0  0  0  0  0
    7.3231    3.0398   -1.0916 C    0  0  0  0  0  0  0  0  0  0  0  0
    6.8291    0.5716   -0.4761 C    0  0  0  0  0  0  0  0  0  0  0  0
    5.0535    2.1709   -0.2712 C    0  0  0  0  0  0  0  0  0  0  0  0
    4.1749    1.1785    0.1725 C    0  0  0  0  0  0  0  0  0  0  0  0
    4.6598   -0.1215    0.2864 C    0  0  0  0  0  0  0  0  0  0  0  0
    2.7401    1.5138    0.5124 C    0  0  0  0  0  0  0  0  0  0  0  0
    5.9828   -0.4681   -0.0272 C    0  0  0  0  0  0  0  0  0  0  0  0
    6.4721   -1.9315    0.1247 C    0  0  0  0  0  0  0  0  0  0  0  0
    8.1469    0.3394   -0.8145 O    0  0  0  0  0  0  0  0  0  0  0  0
    7.6164   -2.0244    1.1712 C    0  0  0  0  0  0  0  0  0  0  0  0
    6.9151   -2.5146   -1.2456 C    0  0  0  0  0  0  0  0  0  0  0  0
    5.3541   -2.8653    0.6372 C    0  0  0  0  0  0  0  0  0  0  0  0
    7.8244    2.7417   -2.5266 C    0  0  0  0  0  0  0  0  0  0  0  0
    8.5259    3.1939   -0.1278 C    0  0  0  0  0  0  0  0  0  0  0  0
    6.6046    4.4049   -1.1378 C    0  0  0  0  0  0  0  0  0  0  0  0
    4.6741    3.1829   -0.3569 H    0  0  0  0  0  0  0  0  0  0  0  0
    3.9768   -0.8878    0.6337 H    0  0  0  0  0  0  0  0  0  0  0  0
    2.2066    0.6386    0.8979 H    0  0  0  0  0  0  0  0  0  0  0  0
    2.6779    2.3017    1.2737 H    0  0  0  0  0  0  0  0  0  0  0  0
    2.1896    1.8747   -0.3663 H    0  0  0  0  0  0  0  0  0  0  0  0
    8.3442   -0.5985   -0.7070 H    0  0  0  0  0  0  0  0  0  0  0  0
    7.2529   -1.7008    2.1524 H    0  0  0  0  0  0  0  0  0  0  0  0
    7.9647   -3.0603    1.2618 H    0  0  0  0  0  0  0  0  0  0  0  0
    8.4904   -1.4046    0.9446 H    0  0  0  0  0  0  0  0  0  0  0  0
    6.0693   -2.5205   -1.9415 H    0  0  0  0  0  0  0  0  0  0  0  0
    7.7190   -1.9589   -1.7405 H    0  0  0  0  0  0  0  0  0  0  0  0
    7.2624   -3.5474   -1.1232 H    0  0  0  0  0  0  0  0  0  0  0  0
    4.9873   -2.5623    1.6235 H    0  0  0  0  0  0  0  0  0  0  0  0
    4.5033   -2.9018   -0.0513 H    0  0  0  0  0  0  0  0  0  0  0  0
    5.7485   -3.8835    0.7295 H    0  0  0  0  0  0  0  0  0  0  0  0
    8.3850    1.8072   -2.5751 H    0  0  0  0  0  0  0  0  0  0  0  0
    6.9796    2.6737   -3.2227 H    0  0  0  0  0  0  0  0  0  0  0  0
    8.4776    3.5537   -2.8703 H    0  0  0  0  0  0  0  0  0  0  0  0
    9.1198    2.2807   -0.0697 H    0  0  0  0  0  0  0  0  0  0  0  0
    9.1775    4.0075   -0.4710 H    0  0  0  0  0  0  0  0  0  0  0  0
    8.1805    3.4452    0.8823 H    0  0  0  0  0  0  0  0  0  0  0  0
    6.2438    4.7160   -0.1507 H    0  0  0  0  0  0  0  0  0  0  0  0
    7.3095    5.1687   -1.4849 H    0  0  0  0  0  0  0  0  0  0  0  0
    5.7553    4.4033   -1.8307 H    0  0  0  0  0  0  0  0  0  0  0  0
  1  2  1  0
  2 14  1  0
  2 15  1  0
  2 16  1  0
  3 10  1  0
  5  7  1  0
  8  9  1  0
  9 11  1  0
  9 12  1  0
  9 13  1  0
  1  3  1  0
  3  8  2  0
  8  6  1  0
  6  5  2  0
  5  4  1  0
  1  4  2  0
  4 17  1  0
  6 18  1  0
  7 19  1  0
  7 20  1  0
  7 21  1  0
 10 22  1  0
 11 23  1  0
 11 24  1  0
 11 25  1  0
 12 26  1  0
 12 27  1  0
 12 28  1  0
 13 29  1  0
 13 30  1  0
 13 31  1  0
 14 32  1  0
 14 33  1  0
 14 34  1  0
 15 35  1  0
 15 36  1  0
 15 37  1  0
 16 38  1  0
 16 39  1  0
 16 40  1  0
M  END
