  2-HEXYLNAPHTHALENE.mol	2876-46-2
  NIST    07091508243D 1   1.00000  -621.77967
Copyright by the U.S. Sec. Commerce on behalf of U.S.A. All rights reserved.
 36 37  0  0  0  0  0  0  0  0999 V2000
    8.5486    3.4993    0.8997 C    0  0  0  0  0  0  0  0  0  0  0  0
    8.2589    2.2899   -0.0126 C    0  0  0  0  0  0  0  0  0  0  0  0
    6.9630    1.5835    0.3204 C    0  0  0  0  0  0  0  0  0  0  0  0
    9.8670    4.2048    0.5594 C    0  0  0  0  0  0  0  0  0  0  0  0
    5.8188    1.7856   -0.4248 C    0  0  0  0  0  0  0  0  0  0  0  0
    6.8970    0.7066    1.4399 C    0  0  0  0  0  0  0  0  0  0  0  0
   10.1617    5.4159    1.4539 C    0  0  0  0  0  0  0  0  0  0  0  0
    4.5904    1.1480   -0.1038 C    0  0  0  0  0  0  0  0  0  0  0  0
    5.7270    0.0706    1.7817 C    0  0  0  0  0  0  0  0  0  0  0  0
   11.4777    6.1254    1.1097 C    0  0  0  0  0  0  0  0  0  0  0  0
    4.5401    0.2690    1.0260 C    0  0  0  0  0  0  0  0  0  0  0  0
    3.4087    1.3485   -0.8673 C    0  0  0  0  0  0  0  0  0  0  0  0
   11.7640    7.3354    2.0049 C    0  0  0  0  0  0  0  0  0  0  0  0
    3.3139   -0.3726    1.3453 C    0  0  0  0  0  0  0  0  0  0  0  0
    2.2343    0.7128   -0.5316 C    0  0  0  0  0  0  0  0  0  0  0  0
    2.1857   -0.1568    0.5857 C    0  0  0  0  0  0  0  0  0  0  0  0
    7.7155    4.2117    0.8223 H    0  0  0  0  0  0  0  0  0  0  0  0
    8.5679    3.1676    1.9474 H    0  0  0  0  0  0  0  0  0  0  0  0
    9.0951    1.5804    0.0638 H    0  0  0  0  0  0  0  0  0  0  0  0
    8.2339    2.6279   -1.0566 H    0  0  0  0  0  0  0  0  0  0  0  0
   10.6956    3.4851    0.6372 H    0  0  0  0  0  0  0  0  0  0  0  0
    9.8445    4.5275   -0.4923 H    0  0  0  0  0  0  0  0  0  0  0  0
    5.8476    2.4479   -1.2884 H    0  0  0  0  0  0  0  0  0  0  0  0
    7.7961    0.5360    2.0284 H    0  0  0  0  0  0  0  0  0  0  0  0
    9.3321    6.1344    1.3778 H    0  0  0  0  0  0  0  0  0  0  0  0
   10.1879    5.0943    2.5058 H    0  0  0  0  0  0  0  0  0  0  0  0
    5.6970   -0.6004    2.6374 H    0  0  0  0  0  0  0  0  0  0  0  0
   12.3070    5.4078    1.1873 H    0  0  0  0  0  0  0  0  0  0  0  0
   11.4514    6.4458    0.0584 H    0  0  0  0  0  0  0  0  0  0  0  0
    3.4479    2.0158   -1.7254 H    0  0  0  0  0  0  0  0  0  0  0  0
   12.7086    7.8204    1.7334 H    0  0  0  0  0  0  0  0  0  0  0  0
   10.9683    8.0861    1.9226 H    0  0  0  0  0  0  0  0  0  0  0  0
   11.8318    7.0413    3.0597 H    0  0  0  0  0  0  0  0  0  0  0  0
    3.2807   -1.0400    2.2037 H    0  0  0  0  0  0  0  0  0  0  0  0
    1.3382    0.8758   -1.1246 H    0  0  0  0  0  0  0  0  0  0  0  0
    1.2532   -0.6532    0.8405 H    0  0  0  0  0  0  0  0  0  0  0  0
  1  2  1  0  0  0  0
  1  4  1  0  0  0  0
  1 17  1  0  0  0  0
  1 18  1  0  0  0  0
  2  3  1  0  0  0  0
  2 19  1  0  0  0  0
  2 20  1  0  0  0  0
  3  5  1  0  0  0  0
  4  7  1  0  0  0  0
  4 21  1  0  0  0  0
  4 22  1  0  0  0  0
  5  8  2  0  0  0  0
  5 23  1  0  0  0  0
  6  3  2  0  0  0  0
  6 24  1  0  0  0  0
  7 10  1  0  0  0  0
  7 25  1  0  0  0  0
  7 26  1  0  0  0  0
  8 12  1  0  0  0  0
  9  6  1  0  0  0  0
  9 27  1  0  0  0  0
 10 13  1  0  0  0  0
 10 28  1  0  0  0  0
 10 29  1  0  0  0  0
 11  9  2  0  0  0  0
 11  8  1  0  0  0  0
 12 30  1  0  0  0  0
 13 31  1  0  0  0  0
 13 32  1  0  0  0  0
 13 33  1  0  0  0  0
 14 11  1  0  0  0  0
 14 34  1  0  0  0  0
 15 16  1  0  0  0  0
 15 12  2  0  0  0  0
 15 35  1  0  0  0  0
 16 14  2  0  0  0  0
 16 36  1  0  0  0  0
M  END
