  3,4-DIETHYLHEXANE.mol	19398-77-7
  NIST    07021502533D 1   1.00000  -394.32705
Copyright by the U.S. Sec. Commerce on behalf of U.S.A. All rights reserved.
 32 31  0  0  0  0  0  0  0  0999 V2000
    5.8475    2.7025    3.1940 C    0  0  0  0  0  0  0  0  0  0  0  0
    4.5773    3.3303    3.7842 C    0  0  0  0  0  0  0  0  0  0  0  0
    3.2538    2.6723    3.2956 C    0  0  0  0  0  0  0  0  0  0  0  0
    2.6737    1.6805    4.3282 C    0  0  0  0  0  0  0  0  0  0  0  0
    2.2181    3.7499    2.8481 C    0  0  0  0  0  0  0  0  0  0  0  0
    3.5807    0.4889    4.6605 C    0  0  0  0  0  0  0  0  0  0  0  0
    1.4093    2.4571    0.7405 C    0  0  0  0  0  0  0  0  0  0  0  0
    1.0311    3.1776    2.0407 C    0  0  0  0  0  0  0  0  0  0  0  0
    1.7201    4.6146    4.0306 C    0  0  0  0  0  0  0  0  0  0  0  0
    1.0901    5.9528    3.6221 C    0  0  0  0  0  0  0  0  0  0  0  0
    5.8535    2.7894    2.1003 H    0  0  0  0  0  0  0  0  0  0  0  0
    6.7483    3.2018    3.5708 H    0  0  0  0  0  0  0  0  0  0  0  0
    5.9300    1.6380    3.4382 H    0  0  0  0  0  0  0  0  0  0  0  0
    4.6312    3.2970    4.8811 H    0  0  0  0  0  0  0  0  0  0  0  0
    4.5743    4.3966    3.5218 H    0  0  0  0  0  0  0  0  0  0  0  0
    3.5052    2.0890    2.3980 H    0  0  0  0  0  0  0  0  0  0  0  0
    2.4410    2.2186    5.2572 H    0  0  0  0  0  0  0  0  0  0  0  0
    1.7175    1.2899    3.9565 H    0  0  0  0  0  0  0  0  0  0  0  0
    2.7655    4.4206    2.1650 H    0  0  0  0  0  0  0  0  0  0  0  0
    3.8415   -0.0784    3.7582 H    0  0  0  0  0  0  0  0  0  0  0  0
    4.5155    0.8049    5.1364 H    0  0  0  0  0  0  0  0  0  0  0  0
    3.0797   -0.1997    5.3510 H    0  0  0  0  0  0  0  0  0  0  0  0
    2.0243    3.0988    0.0967 H    0  0  0  0  0  0  0  0  0  0  0  0
    1.9726    1.5355    0.9231 H    0  0  0  0  0  0  0  0  0  0  0  0
    0.5121    2.1829    0.1736 H    0  0  0  0  0  0  0  0  0  0  0  0
    0.3574    4.0057    1.7869 H    0  0  0  0  0  0  0  0  0  0  0  0
    0.4396    2.5025    2.6744 H    0  0  0  0  0  0  0  0  0  0  0  0
    0.9951    4.0398    4.6234 H    0  0  0  0  0  0  0  0  0  0  0  0
    2.5608    4.8245    4.7045 H    0  0  0  0  0  0  0  0  0  0  0  0
    1.7989    6.5631    3.0483 H    0  0  0  0  0  0  0  0  0  0  0  0
    0.1944    5.8196    3.0056 H    0  0  0  0  0  0  0  0  0  0  0  0
    0.7943    6.5309    4.5052 H    0  0  0  0  0  0  0  0  0  0  0  0
  1  2  1  0  0  0  0
  1 11  1  0  0  0  0
  1 12  1  0  0  0  0
  1 13  1  0  0  0  0
  2  3  1  0  0  0  0
  2 14  1  0  0  0  0
  2 15  1  0  0  0  0
  3  4  1  0  0  0  0
  3  5  1  0  0  0  0
  3 16  1  0  0  0  0
  4  6  1  0  0  0  0
  4 17  1  0  0  0  0
  4 18  1  0  0  0  0
  5  8  1  0  0  0  0
  5  9  1  0  0  0  0
  5 19  1  0  0  0  0
  6 20  1  0  0  0  0
  6 21  1  0  0  0  0
  6 22  1  0  0  0  0
  7  8  1  0  0  0  0
  7 23  1  0  0  0  0
  7 24  1  0  0  0  0
  7 25  1  0  0  0  0
  8 26  1  0  0  0  0
  8 27  1  0  0  0  0
  9 10  1  0  0  0  0
  9 28  1  0  0  0  0
  9 29  1  0  0  0  0
 10 30  1  0  0  0  0
 10 31  1  0  0  0  0
 10 32  1  0  0  0  0
M  END
