  3-METHYLPENTADECANE.mol	2882-96-4
  NIST    07021310173D 1   1.00000     0.00000
Copyright by the U.S. Sec. Commerce on behalf of U.S.A. All rights reserved.
 50 49  0  0  0  0  0  0  0  0999 V2000
   85.9107   29.9568   -0.0416 C    0  0  0  0  0  0  0  0  0  0  0  0
   84.6095   29.1432   -0.0819 C    0  0  0  0  0  0  0  0  0  0  0  0
   85.6848   31.4741   -0.0450 C    0  0  0  0  0  0  0  0  0  0  0  0
   84.8515   27.6276   -0.0789 C    0  0  0  0  0  0  0  0  0  0  0  0
   86.9840   32.2896   -0.0169 C    0  0  0  0  0  0  0  0  0  0  0  0
   83.6023   26.7241    0.0006 C    0  0  0  0  0  0  0  0  0  0  0  0
   86.7556   33.8067   -0.0121 C    0  0  0  0  0  0  0  0  0  0  0  0
   82.6217   26.9090   -1.1876 C    0  0  0  0  0  0  0  0  0  0  0  0
   84.0423   25.2542    0.1111 C    0  0  0  0  0  0  0  0  0  0  0  0
   88.0539   34.6240    0.0067 C    0  0  0  0  0  0  0  0  0  0  0  0
   81.4927   27.9211   -0.9510 C    0  0  0  0  0  0  0  0  0  0  0  0
   87.8236   36.1408    0.0165 C    0  0  0  0  0  0  0  0  0  0  0  0
   89.1211   36.9594    0.0299 C    0  0  0  0  0  0  0  0  0  0  0  0
   88.8904   38.4759    0.0416 C    0  0  0  0  0  0  0  0  0  0  0  0
   90.1874   39.2951    0.0522 C    0  0  0  0  0  0  0  0  0  0  0  0
   89.9484   40.8084    0.0639 C    0  0  0  0  0  0  0  0  0  0  0  0
   86.4868   29.6774    0.8532 H    0  0  0  0  0  0  0  0  0  0  0  0
   86.5375   29.6811   -0.9029 H    0  0  0  0  0  0  0  0  0  0  0  0
   84.0407   29.4319   -0.9760 H    0  0  0  0  0  0  0  0  0  0  0  0
   83.9847   29.4170    0.7814 H    0  0  0  0  0  0  0  0  0  0  0  0
   85.1017   31.7522   -0.9357 H    0  0  0  0  0  0  0  0  0  0  0  0
   85.0642   31.7499    0.8207 H    0  0  0  0  0  0  0  0  0  0  0  0
   85.5038   27.3835    0.7727 H    0  0  0  0  0  0  0  0  0  0  0  0
   85.4222   27.3551   -0.9805 H    0  0  0  0  0  0  0  0  0  0  0  0
   87.5707   32.0084    0.8704 H    0  0  0  0  0  0  0  0  0  0  0  0
   87.6015   32.0182   -0.8862 H    0  0  0  0  0  0  0  0  0  0  0  0
   83.0624   26.9776    0.9268 H    0  0  0  0  0  0  0  0  0  0  0  0
   86.1634   34.0870   -0.8961 H    0  0  0  0  0  0  0  0  0  0  0  0
   86.1431   34.0781    0.8606 H    0  0  0  0  0  0  0  0  0  0  0  0
   83.1893   27.1876   -2.0875 H    0  0  0  0  0  0  0  0  0  0  0  0
   82.1601   25.9396   -1.4192 H    0  0  0  0  0  0  0  0  0  0  0  0
   83.1807   24.5920    0.2573 H    0  0  0  0  0  0  0  0  0  0  0  0
   84.7298   25.1017    0.9517 H    0  0  0  0  0  0  0  0  0  0  0  0
   84.5581   24.9298   -0.8024 H    0  0  0  0  0  0  0  0  0  0  0  0
   88.6482   34.3417    0.8886 H    0  0  0  0  0  0  0  0  0  0  0  0
   88.6645   34.3553   -0.8682 H    0  0  0  0  0  0  0  0  0  0  0  0
   80.8373   27.9899   -1.8275 H    0  0  0  0  0  0  0  0  0  0  0  0
   80.8725   27.6191   -0.0978 H    0  0  0  0  0  0  0  0  0  0  0  0
   81.8716   28.9260   -0.7408 H    0  0  0  0  0  0  0  0  0  0  0  0
   87.2261   36.4224   -0.8634 H    0  0  0  0  0  0  0  0  0  0  0  0
   87.2158   36.4095    0.8933 H    0  0  0  0  0  0  0  0  0  0  0  0
   89.7197   36.6769    0.9088 H    0  0  0  0  0  0  0  0  0  0  0  0
   89.7281   36.6918   -0.8480 H    0  0  0  0  0  0  0  0  0  0  0  0
   88.2906   38.7592   -0.8364 H    0  0  0  0  0  0  0  0  0  0  0  0
   88.2853   38.7448    0.9205 H    0  0  0  0  0  0  0  0  0  0  0  0
   90.7867   39.0128    0.9296 H    0  0  0  0  0  0  0  0  0  0  0  0
   90.7917   39.0271   -0.8263 H    0  0  0  0  0  0  0  0  0  0  0  0
   90.8937   41.3632    0.0710 H    0  0  0  0  0  0  0  0  0  0  0  0
   89.3818   41.1274   -0.8197 H    0  0  0  0  0  0  0  0  0  0  0  0
   89.3770   41.1129    0.9495 H    0  0  0  0  0  0  0  0  0  0  0  0
  1  2  1  0
  1  3  1  0
  2  4  1  0
  3  5  1  0
  4  6  1  0
  5  7  1  0
  6  8  1  0
  6  9  1  0
  7 10  1  0
  8 11  1  0
 10 12  1  0
 12 13  1  0
 13 14  1  0
 14 15  1  0
 15 16  1  0
  1 17  1  0
  1 18  1  0
  2 19  1  0
  2 20  1  0
  3 21  1  0
  3 22  1  0
  4 23  1  0
  4 24  1  0
  5 25  1  0
  5 26  1  0
  6 27  1  0
  7 28  1  0
  7 29  1  0
  8 30  1  0
  8 31  1  0
  9 32  1  0
  9 33  1  0
  9 34  1  0
 10 35  1  0
 10 36  1  0
 11 37  1  0
 11 38  1  0
 11 39  1  0
 12 40  1  0
 12 41  1  0
 13 42  1  0
 13 43  1  0
 14 44  1  0
 14 45  1  0
 15 46  1  0
 15 47  1  0
 16 48  1  0
 16 49  1  0
 16 50  1  0
M  END
