  4-PROPYLHEPTANE.mol	3178-29-8
  NIST    07021502443D 1   1.00000  -394.33542
Copyright by the U.S. Sec. Commerce on behalf of U.S.A. All rights reserved.
 32 31  0  0  0  0  0  0  0  0999 V2000
    4.1129    3.1289    2.2952 C    0  0  0  0  0  0  0  0  0  0  0  0
    3.8834    4.5256    1.6745 C    0  0  0  0  0  0  0  0  0  0  0  0
    5.0905    5.4560    1.9311 C    0  0  0  0  0  0  0  0  0  0  0  0
    2.5725    5.1586    2.1942 C    0  0  0  0  0  0  0  0  0  0  0  0
    3.2234    2.0125    1.7292 C    0  0  0  0  0  0  0  0  0  0  0  0
    6.3319    5.1607    1.0769 C    0  0  0  0  0  0  0  0  0  0  0  0
    2.0096    6.2926    1.3254 C    0  0  0  0  0  0  0  0  0  0  0  0
    3.4757    0.6545    2.3931 C    0  0  0  0  0  0  0  0  0  0  0  0
    7.5051    6.0971    1.3857 C    0  0  0  0  0  0  0  0  0  0  0  0
    0.7265    6.9033    1.8989 C    0  0  0  0  0  0  0  0  0  0  0  0
    3.9654    3.1981    3.3842 H    0  0  0  0  0  0  0  0  0  0  0  0
    5.1609    2.8317    2.1537 H    0  0  0  0  0  0  0  0  0  0  0  0
    3.7848    4.3963    0.5838 H    0  0  0  0  0  0  0  0  0  0  0  0
    5.3584    5.4008    2.9978 H    0  0  0  0  0  0  0  0  0  0  0  0
    4.7948    6.4986    1.7510 H    0  0  0  0  0  0  0  0  0  0  0  0
    2.7412    5.5305    3.2169 H    0  0  0  0  0  0  0  0  0  0  0  0
    1.7996    4.3830    2.2823 H    0  0  0  0  0  0  0  0  0  0  0  0
    3.4001    1.9288    0.6472 H    0  0  0  0  0  0  0  0  0  0  0  0
    2.1638    2.2769    1.8435 H    0  0  0  0  0  0  0  0  0  0  0  0
    6.0635    5.2489    0.0144 H    0  0  0  0  0  0  0  0  0  0  0  0
    6.6541    4.1212    1.2228 H    0  0  0  0  0  0  0  0  0  0  0  0
    2.7605    7.0843    1.2018 H    0  0  0  0  0  0  0  0  0  0  0  0
    1.8099    5.9039    0.3165 H    0  0  0  0  0  0  0  0  0  0  0  0
    2.8377   -0.1264    1.9635 H    0  0  0  0  0  0  0  0  0  0  0  0
    4.5189    0.3389    2.2673 H    0  0  0  0  0  0  0  0  0  0  0  0
    3.2717    0.6961    3.4702 H    0  0  0  0  0  0  0  0  0  0  0  0
    7.2312    7.1459    1.2164 H    0  0  0  0  0  0  0  0  0  0  0  0
    7.8217    6.0041    2.4319 H    0  0  0  0  0  0  0  0  0  0  0  0
    8.3730    5.8739    0.7544 H    0  0  0  0  0  0  0  0  0  0  0  0
    0.3389    7.7005    1.2541 H    0  0  0  0  0  0  0  0  0  0  0  0
   -0.0612    6.1467    2.0031 H    0  0  0  0  0  0  0  0  0  0  0  0
    0.9022    7.3346    2.8923 H    0  0  0  0  0  0  0  0  0  0  0  0
  1  2  1  0  0  0  0
  1  5  1  0  0  0  0
  1 11  1  0  0  0  0
  1 12  1  0  0  0  0
  2  3  1  0  0  0  0
  2  4  1  0  0  0  0
  2 13  1  0  0  0  0
  3  6  1  0  0  0  0
  3 14  1  0  0  0  0
  3 15  1  0  0  0  0
  4  7  1  0  0  0  0
  4 16  1  0  0  0  0
  4 17  1  0  0  0  0
  5  8  1  0  0  0  0
  5 18  1  0  0  0  0
  5 19  1  0  0  0  0
  6  9  1  0  0  0  0
  6 20  1  0  0  0  0
  6 21  1  0  0  0  0
  7 10  1  0  0  0  0
  7 22  1  0  0  0  0
  7 23  1  0  0  0  0
  8 24  1  0  0  0  0
  8 25  1  0  0  0  0
  8 26  1  0  0  0  0
  9 27  1  0  0  0  0
  9 28  1  0  0  0  0
  9 29  1  0  0  0  0
 10 30  1  0  0  0  0
 10 31  1  0  0  0  0
 10 32  1  0  0  0  0
M  END
