
 OpenBabel02061909533D

 26 26  0  0  0  0  0  0  0  0999 V2000
    0.8300    0.1823    0.3368 C   0  0  0  0  0  0  0  0  0  0  0  0
    2.3416    0.0785    0.0793 C   0  0  0  0  0  0  0  0  0  0  0  0
    3.0247    1.3621    0.5761 C   0  0  0  0  0  0  0  0  0  0  0  0
    2.9048   -1.2079    0.6903 C   0  0  0  0  0  0  0  0  0  0  0  0
    3.9923   -1.2116    1.7682 C   0  0  0  0  0  0  0  0  0  0  0  0
    3.7019   -2.3257    2.7715 C   0  0  0  0  0  0  0  0  0  0  0  0
    3.5904   -3.6436    2.0273 C   0  0  0  0  0  0  0  0  0  0  0  0
    2.9553   -3.6705    0.8374 C   0  0  0  0  0  0  0  0  0  0  0  0
    4.1500   -4.9089    2.6144 C   0  0  0  0  0  0  0  0  0  0  0  0
    2.4699   -2.4067    0.2271 C   0  0  0  0  0  0  0  0  0  0  0  0
    0.4183    1.0933   -0.1481 H   0  0  0  0  0  0  0  0  0  0  0  0
    0.6256    0.2344    1.4280 H   0  0  0  0  0  0  0  0  0  0  0  0
    0.2905   -0.6917   -0.0833 H   0  0  0  0  0  0  0  0  0  0  0  0
    2.5136    0.0304   -1.0190 H   0  0  0  0  0  0  0  0  0  0  0  0
    2.8530    1.5156    1.6628 H   0  0  0  0  0  0  0  0  0  0  0  0
    2.6128    2.2437    0.0398 H   0  0  0  0  0  0  0  0  0  0  0  0
    4.1159    1.3210    0.3716 H   0  0  0  0  0  0  0  0  0  0  0  0
    4.1008   -0.2432    2.2918 H   0  0  0  0  0  0  0  0  0  0  0  0
    4.9656   -1.4468    1.2837 H   0  0  0  0  0  0  0  0  0  0  0  0
    2.7197   -2.0999    3.2422 H   0  0  0  0  0  0  0  0  0  0  0  0
    4.4678   -2.3720    3.5747 H   0  0  0  0  0  0  0  0  0  0  0  0
    2.7995   -4.6101    0.3154 H   0  0  0  0  0  0  0  0  0  0  0  0
    4.6263   -4.7185    3.5988 H   0  0  0  0  0  0  0  0  0  0  0  0
    4.9135   -5.3342    1.9294 H   0  0  0  0  0  0  0  0  0  0  0  0
    3.3347   -5.6493    2.7569 H   0  0  0  0  0  0  0  0  0  0  0  0
    1.7640   -2.4600   -0.5959 H   0  0  0  0  0  0  0  0  0  0  0  0
  1  2  1  0  0  0  0
  1 11  1  0  0  0  0
  1 12  1  0  0  0  0
  1 13  1  0  0  0  0
  2  3  1  0  0  0  0
  2  4  1  0  0  0  0
  2 14  1  0  0  0  0
  3 15  1  0  0  0  0
  3 16  1  0  0  0  0
  3 17  1  0  0  0  0
  4  5  1  0  0  0  0
  5  6  1  0  0  0  0
  5 18  1  0  0  0  0
  5 19  1  0  0  0  0
  6  7  1  0  0  0  0
  6 20  1  0  0  0  0
  6 21  1  0  0  0  0
  7  8  2  0  0  0  0
  7  9  1  0  0  0  0
  8 10  1  0  0  0  0
  8 22  1  0  0  0  0
  9 23  1  0  0  0  0
  9 24  1  0  0  0  0
  9 25  1  0  0  0  0
 10  4  2  0  0  0  0
 10 26  1  0  0  0  0
M  END
