
 OpenBabel02061910233D

 39 39  0  0  0  0  0  0  0  0999 V2000
    9.6836   -3.1540   -9.0331 C   0  0  0  0  0  0  0  0  0  0  0  0
   10.5182   -3.0527  -10.2934 C   0  0  0  0  0  0  0  0  0  0  0  0
    9.0453   -1.7947   -8.7202 C   0  0  0  0  0  0  0  0  0  0  0  0
   10.1674   -3.6345  -11.4708 C   0  0  0  0  0  0  0  0  0  0  0  0
   11.7751   -2.2222  -10.2554 C   0  0  0  0  0  0  0  0  0  0  0  0
    8.9260   -4.4821  -11.7367 C   0  0  0  0  0  0  0  0  0  0  0  0
    7.9644   -1.9811   -7.6879 C   0  0  0  0  0  0  0  0  0  0  0  0
    6.6373   -1.9909   -7.9827 C   0  0  0  0  0  0  0  0  0  0  0  0
    6.0923   -1.8197   -9.3977 C   0  0  0  0  0  0  0  0  0  0  0  0
    5.6417   -2.2158   -6.8730 C   0  0  0  0  0  0  0  0  0  0  0  0
    6.5916   -2.9111  -10.3225 C   0  0  0  0  0  0  0  0  0  0  0  0
    7.2114   -2.6234  -11.4889 C   0  0  0  0  0  0  0  0  0  0  0  0
    7.7659   -3.6977  -12.4258 C   0  0  0  0  0  0  0  0  0  0  0  0
    6.6414   -4.6816  -12.8168 C   0  0  0  0  0  0  0  0  0  0  0  0
    8.2742   -3.0240  -13.7212 C   0  0  0  0  0  0  0  0  0  0  0  0
   10.2872   -3.5288   -8.1789 H   0  0  0  0  0  0  0  0  0  0  0  0
    8.8603   -3.8714   -9.1586 H   0  0  0  0  0  0  0  0  0  0  0  0
    8.6176   -1.3874   -9.6521 H   0  0  0  0  0  0  0  0  0  0  0  0
    9.7866   -1.0395   -8.3848 H   0  0  0  0  0  0  0  0  0  0  0  0
   10.8113   -3.4575  -12.3291 H   0  0  0  0  0  0  0  0  0  0  0  0
   11.6964   -1.3851  -10.9811 H   0  0  0  0  0  0  0  0  0  0  0  0
   12.6500   -2.8533  -10.5192 H   0  0  0  0  0  0  0  0  0  0  0  0
   11.9488   -1.7969   -9.2447 H   0  0  0  0  0  0  0  0  0  0  0  0
    8.5540   -5.0098  -10.8406 H   0  0  0  0  0  0  0  0  0  0  0  0
    9.2607   -5.3119  -12.3967 H   0  0  0  0  0  0  0  0  0  0  0  0
    8.2839   -2.1679   -6.6662 H   0  0  0  0  0  0  0  0  0  0  0  0
    6.3476   -0.8083   -9.7820 H   0  0  0  0  0  0  0  0  0  0  0  0
    4.9839   -1.8902   -9.3690 H   0  0  0  0  0  0  0  0  0  0  0  0
    6.1293   -2.3409   -5.8824 H   0  0  0  0  0  0  0  0  0  0  0  0
    4.9536   -1.3467   -6.8128 H   0  0  0  0  0  0  0  0  0  0  0  0
    5.0509   -3.1311   -7.0866 H   0  0  0  0  0  0  0  0  0  0  0  0
    6.4444   -3.9436  -10.0230 H   0  0  0  0  0  0  0  0  0  0  0  0
    7.3234   -1.5801  -11.7748 H   0  0  0  0  0  0  0  0  0  0  0  0
    6.2432   -5.2191  -11.9311 H   0  0  0  0  0  0  0  0  0  0  0  0
    7.0216   -5.4468  -13.5277 H   0  0  0  0  0  0  0  0  0  0  0  0
    5.8001   -4.1420  -13.3034 H   0  0  0  0  0  0  0  0  0  0  0  0
    9.0647   -2.2739  -13.5069 H   0  0  0  0  0  0  0  0  0  0  0  0
    7.4441   -2.4928  -14.2358 H   0  0  0  0  0  0  0  0  0  0  0  0
    8.6895   -3.7812  -14.4209 H   0  0  0  0  0  0  0  0  0  0  0  0
  1  2  1  0  0  0  0
  1 16  1  0  0  0  0
  1 17  1  0  0  0  0
  2  4  2  0  0  0  0
  2  5  1  0  0  0  0
  3  1  1  0  0  0  0
  3 18  1  0  0  0  0
  3 19  1  0  0  0  0
  4  6  1  0  0  0  0
  4 20  1  0  0  0  0
  5 21  1  0  0  0  0
  5 22  1  0  0  0  0
  5 23  1  0  0  0  0
  6 13  1  0  0  0  0
  6 24  1  0  0  0  0
  6 25  1  0  0  0  0
  7  3  1  0  0  0  0
  7 26  1  0  0  0  0
  8  7  2  0  0  0  0
  8 10  1  0  0  0  0
  9  8  1  0  0  0  0
  9 27  1  0  0  0  0
  9 28  1  0  0  0  0
 10 29  1  0  0  0  0
 10 30  1  0  0  0  0
 10 31  1  0  0  0  0
 11  9  1  0  0  0  0
 11 32  1  0  0  0  0
 12 11  2  0  0  0  0
 12 33  1  0  0  0  0
 13 12  1  0  0  0  0
 13 14  1  0  0  0  0
 13 15  1  0  0  0  0
 14 34  1  0  0  0  0
 14 35  1  0  0  0  0
 14 36  1  0  0  0  0
 15 37  1  0  0  0  0
 15 38  1  0  0  0  0
 15 39  1  0  0  0  0
M  END
