
 OpenBabel02061909493D

 26 26  0  0  0  0  0  0  0  0999 V2000
    1.0063    0.4930    0.1080 C   0  0  0  0  0  0  0  0  0  0  0  0
    2.4531   -0.0280    0.0941 C   0  0  0  0  0  0  0  0  0  0  0  0
    2.4461   -1.5638    0.1651 C   0  0  0  0  0  0  0  0  0  0  0  0
    3.2945    0.4682   -1.1211 C   0  0  2  0  0  0  0  0  0  0  0  0
    3.5260    1.9936   -1.1611 C   0  0  0  0  0  0  0  0  0  0  0  0
    2.7350    0.0030   -2.4591 C   0  0  0  0  0  0  0  0  0  0  0  0
    2.3614    2.7446   -1.7453 C   0  0  0  0  0  0  0  0  0  0  0  0
    1.9865    0.8231   -3.2244 C   0  0  0  0  0  0  0  0  0  0  0  0
    1.6832    2.2115   -2.7804 C   0  0  0  0  0  0  0  0  0  0  0  0
    0.5898    2.9804   -3.4663 C   0  0  0  0  0  0  0  0  0  0  0  0
    0.4754    0.1154    1.0079 H   0  0  0  0  0  0  0  0  0  0  0  0
    0.4516    0.1550   -0.7927 H   0  0  0  0  0  0  0  0  0  0  0  0
    0.9823    1.5991    0.1612 H   0  0  0  0  0  0  0  0  0  0  0  0
    2.9516    0.3375    1.0194 H   0  0  0  0  0  0  0  0  0  0  0  0
    1.9375   -2.0049   -0.7180 H   0  0  0  0  0  0  0  0  0  0  0  0
    1.9135   -1.9033    1.0791 H   0  0  0  0  0  0  0  0  0  0  0  0
    3.4861   -1.9515    0.2119 H   0  0  0  0  0  0  0  0  0  0  0  0
    4.3122    0.0330   -1.0019 H   0  0  0  0  0  0  0  0  0  0  0  0
    4.3485    2.1499   -1.8950 H   0  0  0  0  0  0  0  0  0  0  0  0
    3.8786    2.4225   -0.1991 H   0  0  0  0  0  0  0  0  0  0  0  0
    2.8796   -1.0270   -2.7699 H   0  0  0  0  0  0  0  0  0  0  0  0
    2.1181    3.7324   -1.3647 H   0  0  0  0  0  0  0  0  0  0  0  0
    1.5417    0.4407   -4.1380 H   0  0  0  0  0  0  0  0  0  0  0  0
    0.4555    3.9926   -3.0279 H   0  0  0  0  0  0  0  0  0  0  0  0
   -0.3674    2.4263   -3.3706 H   0  0  0  0  0  0  0  0  0  0  0  0
    0.8370    3.0941   -4.5425 H   0  0  0  0  0  0  0  0  0  0  0  0
  1  2  1  0  0  0  0
  1 11  1  0  0  0  0
  1 12  1  0  0  0  0
  1 13  1  0  0  0  0
  2  3  1  0  0  0  0
  2  4  1  0  0  0  0
  2 14  1  0  0  0  0
  3 15  1  0  0  0  0
  3 16  1  0  0  0  0
  3 17  1  0  0  0  0
  4  6  1  0  0  0  0
  4 18  1  1  0  0  0
  5  4  1  0  0  0  0
  5 19  1  0  0  0  0
  5 20  1  0  0  0  0
  6  8  2  0  0  0  0
  6 21  1  0  0  0  0
  7  5  1  0  0  0  0
  7 22  1  0  0  0  0
  8  9  1  0  0  0  0
  8 23  1  0  0  0  0
  9  7  2  0  0  0  0
  9 10  1  0  0  0  0
 10 24  1  0  0  0  0
 10 25  1  0  0  0  0
 10 26  1  0  0  0  0
M  END
