
 OpenBabel02061910093D

 29 30  0  0  0  0  0  0  0  0999 V2000
   -1.2078   -0.7216   -0.6041 C   0  0  0  0  0  0  0  0  0  0  0  0
   -1.1721    0.8135   -0.5312 C   0  0  0  0  0  0  0  0  0  0  0  0
    0.0451    1.0857    0.3922 C   0  0  1  0  0  0  0  0  0  0  0  0
   -0.0344   -1.1344    0.3124 C   0  0  2  0  0  0  0  0  0  0  0  0
   -0.0523   -0.0663    1.4313 C   0  0  0  0  0  0  0  0  0  0  0  0
    1.3020    0.7287   -0.4623 C   0  0  2  0  0  0  0  0  0  0  0  0
    1.2622   -0.8124   -0.4663 C   0  0  0  0  0  0  0  0  0  0  0  0
    1.1248   -0.1669    2.4485 C   0  0  0  0  0  0  0  0  0  0  0  0
   -1.3435   -0.0760    2.3082 C   0  0  0  0  0  0  0  0  0  0  0  0
    1.2246    1.1406   -1.4971 H   0  0  0  0  0  0  0  0  0  0  0  0
    2.5038    1.1724    0.1167 O   0  0  0  0  0  0  0  0  0  0  0  0
    0.0462    2.5258    0.9248 C   0  0  0  0  0  0  0  0  0  0  0  0
   -1.1070   -1.1280   -1.6341 H   0  0  0  0  0  0  0  0  0  0  0  0
   -2.1727   -1.0879   -0.1931 H   0  0  0  0  0  0  0  0  0  0  0  0
   -2.1124    1.1771   -0.0639 H   0  0  0  0  0  0  0  0  0  0  0  0
   -1.0987    1.3091   -1.5238 H   0  0  0  0  0  0  0  0  0  0  0  0
   -0.0873   -2.2053    0.6039 H   0  0  0  0  0  0  0  0  0  0  0  0
    2.1295   -1.2248    0.0913 H   0  0  0  0  0  0  0  0  0  0  0  0
    1.2973   -1.2590   -1.4837 H   0  0  0  0  0  0  0  0  0  0  0  0
    1.1023    0.6995    3.1434 H   0  0  0  0  0  0  0  0  0  0  0  0
    2.1366   -0.1943    2.0136 H   0  0  0  0  0  0  0  0  0  0  0  0
    1.0245   -1.0961    3.0495 H   0  0  0  0  0  0  0  0  0  0  0  0
   -1.3359    0.7861    3.0087 H   0  0  0  0  0  0  0  0  0  0  0  0
   -1.3848   -1.0100    2.9086 H   0  0  0  0  0  0  0  0  0  0  0  0
   -2.2970   -0.0239    1.7542 H   0  0  0  0  0  0  0  0  0  0  0  0
    2.6182    2.1224   -0.1471 H   0  0  0  0  0  0  0  0  0  0  0  0
    0.9118    2.6937    1.5987 H   0  0  0  0  0  0  0  0  0  0  0  0
   -0.8833    2.7285    1.4968 H   0  0  0  0  0  0  0  0  0  0  0  0
    0.1056    3.2448    0.0802 H   0  0  0  0  0  0  0  0  0  0  0  0
  1  2  1  0  0  0  0
  1 13  1  0  0  0  0
  1 14  1  0  0  0  0
  2  3  1  0  0  0  0
  2 15  1  0  0  0  0
  2 16  1  0  0  0  0
  3  5  1  0  0  0  0
  3  6  1  0  0  0  0
  3 12  1  1  0  0  0
  4  1  1  0  0  0  0
  4  5  1  0  0  0  0
  4 17  1  1  0  0  0
  5  8  1  0  0  0  0
  5  9  1  0  0  0  0
  6  7  1  0  0  0  0
  6 10  1  6  0  0  0
  6 11  1  0  0  0  0
  7  4  1  0  0  0  0
  7 18  1  0  0  0  0
  7 19  1  0  0  0  0
  8 20  1  0  0  0  0
  8 21  1  0  0  0  0
  8 22  1  0  0  0  0
  9 23  1  0  0  0  0
  9 24  1  0  0  0  0
  9 25  1  0  0  0  0
 11 26  1  0  0  0  0
 12 27  1  0  0  0  0
 12 28  1  0  0  0  0
 12 29  1  0  0  0  0
M  END
