
 OpenBabel09231910343D

 26 27  0  0  0  0  0  0  0  0999 V2000
    0.7418   -0.9553   -0.1117 C   0  0  0  0  0  0  0  0  0  0  0  0
    1.7962   -1.9464   -0.6582 C   0  0  0  0  0  0  0  0  0  0  0  0
    1.3862    0.4436   -0.0152 C   0  0  0  0  0  0  0  0  0  0  0  0
    0.1195   -1.4730    1.2284 C   0  0  2  0  0  0  0  0  0  0  0  0
   -0.5018   -0.9785   -0.9482 C   0  0  0  0  0  0  0  0  0  0  0  0
   -0.9507   -2.4759    0.7477 C   0  0  0  0  0  0  0  0  0  0  0  0
   -0.8111   -0.4263    1.8773 C   0  0  0  0  0  0  0  0  0  0  0  0
   -0.5683   -0.6825   -2.2533 C   0  0  0  0  0  0  0  0  0  0  0  0
   -1.6663   -1.4520   -0.1264 C   0  0  1  0  0  0  0  0  0  0  0  0
   -1.9848   -0.3383    0.8874 C   0  0  0  0  0  0  0  0  0  0  0  0
    2.6628   -2.0000    0.0350 H   0  0  0  0  0  0  0  0  0  0  0  0
    2.1681   -1.6133   -1.6507 H   0  0  0  0  0  0  0  0  0  0  0  0
    1.3968   -2.9722   -0.7831 H   0  0  0  0  0  0  0  0  0  0  0  0
    1.7774    0.7573   -1.0066 H   0  0  0  0  0  0  0  0  0  0  0  0
    2.2296    0.4294    0.7077 H   0  0  0  0  0  0  0  0  0  0  0  0
    0.6579    1.2181    0.2977 H   0  0  0  0  0  0  0  0  0  0  0  0
    0.8851   -1.8336    1.9492 H   0  0  0  0  0  0  0  0  0  0  0  0
   -1.5914   -2.8820    1.5647 H   0  0  0  0  0  0  0  0  0  0  0  0
   -0.5500   -3.3384    0.1735 H   0  0  0  0  0  0  0  0  0  0  0  0
   -0.3607    0.5473    2.1577 H   0  0  0  0  0  0  0  0  0  0  0  0
   -1.1884   -0.8788    2.8235 H   0  0  0  0  0  0  0  0  0  0  0  0
   -1.5122   -0.7516   -2.7842 H   0  0  0  0  0  0  0  0  0  0  0  0
    0.3182   -0.3689   -2.7944 H   0  0  0  0  0  0  0  0  0  0  0  0
   -2.5492   -1.7583   -0.7279 H   0  0  0  0  0  0  0  0  0  0  0  0
   -2.0664    0.6440    0.3716 H   0  0  0  0  0  0  0  0  0  0  0  0
   -2.9307   -0.5431    1.4360 H   0  0  0  0  0  0  0  0  0  0  0  0
  1  2  1  0  0  0  0
  1  3  1  0  0  0  0
  1  5  1  0  0  0  0
  2 11  1  0  0  0  0
  2 12  1  0  0  0  0
  2 13  1  0  0  0  0
  3 14  1  0  0  0  0
  3 15  1  0  0  0  0
  3 16  1  0  0  0  0
  4  1  1  0  0  0  0
  4  6  1  0  0  0  0
  4 17  1  1  0  0  0
  5  8  2  0  0  0  0
  5  9  1  0  0  0  0
  6 18  1  0  0  0  0
  6 19  1  0  0  0  0
  7  4  1  0  0  0  0
  7 20  1  0  0  0  0
  7 21  1  0  0  0  0
  8 22  1  0  0  0  0
  8 23  1  0  0  0  0
  9  6  1  0  0  0  0
  9 10  1  0  0  0  0
  9 24  1  6  0  0  0
 10  7  1  0  0  0  0
 10 25  1  0  0  0  0
 10 26  1  0  0  0  0
M  END
