
 OpenBabel02061910023D

 27 28  0  0  0  0  0  0  0  0999 V2000
   -0.0243   -1.1169    0.2753 C   0  0  1  0  0  0  0  0  0  0  0  0
   -0.0241   -0.0094    1.3756 C   0  0  0  0  0  0  0  0  0  0  0  0
   -1.2594   -0.7689   -0.6024 C   0  0  0  0  0  0  0  0  0  0  0  0
    1.2340   -0.7605   -0.5584 C   0  0  0  0  0  0  0  0  0  0  0  0
   -1.1710    0.7138   -0.5287 C   0  0  0  0  0  0  0  0  0  0  0  0
    1.2420    0.7857   -0.5373 C   0  0  0  0  0  0  0  0  0  0  0  0
   -0.0009    1.1263    0.3191 C   0  0  2  0  0  0  0  0  0  0  0  0
   -0.0355    2.5800    0.8049 C   0  0  0  0  0  0  0  0  0  0  0  0
   -2.0209    1.4722   -0.9702 O   0  0  0  0  0  0  0  0  0  0  0  0
    1.1972   -0.0495    2.3421 C   0  0  0  0  0  0  0  0  0  0  0  0
   -1.2855   -0.0152    2.2933 C   0  0  0  0  0  0  0  0  0  0  0  0
   -0.0295   -2.1814    0.5931 H   0  0  0  0  0  0  0  0  0  0  0  0
   -2.2027   -1.1093   -0.1273 H   0  0  0  0  0  0  0  0  0  0  0  0
   -1.2070   -1.1833   -1.6321 H   0  0  0  0  0  0  0  0  0  0  0  0
    1.2188   -1.1985   -1.5799 H   0  0  0  0  0  0  0  0  0  0  0  0
    2.1453   -1.1412   -0.0507 H   0  0  0  0  0  0  0  0  0  0  0  0
    1.1916    1.2433   -1.5502 H   0  0  0  0  0  0  0  0  0  0  0  0
    2.1762    1.1408   -0.0509 H   0  0  0  0  0  0  0  0  0  0  0  0
   -0.9526    2.7675    1.4016 H   0  0  0  0  0  0  0  0  0  0  0  0
   -0.0275    3.2733   -0.0629 H   0  0  0  0  0  0  0  0  0  0  0  0
    0.8513    2.7942    1.4374 H   0  0  0  0  0  0  0  0  0  0  0  0
    2.1865   -0.0377    1.8511 H   0  0  0  0  0  0  0  0  0  0  0  0
    1.1567   -0.9706    2.9619 H   0  0  0  0  0  0  0  0  0  0  0  0
    1.1738    0.8289    3.0217 H   0  0  0  0  0  0  0  0  0  0  0  0
   -2.2484    0.0537    1.7521 H   0  0  0  0  0  0  0  0  0  0  0  0
   -1.2578    0.8526    2.9863 H   0  0  0  0  0  0  0  0  0  0  0  0
   -1.3095   -0.9452    2.9005 H   0  0  0  0  0  0  0  0  0  0  0  0
  1  2  1  0  0  0  0
  1  3  1  0  0  0  0
  1 12  1  1  0  0  0
  2 10  1  0  0  0  0
  2 11  1  0  0  0  0
  3  5  1  0  0  0  0
  3 13  1  0  0  0  0
  3 14  1  0  0  0  0
  4  1  1  0  0  0  0
  4 15  1  0  0  0  0
  4 16  1  0  0  0  0
  5  9  2  0  0  0  0
  6  4  1  0  0  0  0
  6 17  1  0  0  0  0
  6 18  1  0  0  0  0
  7  2  1  0  0  0  0
  7  5  1  0  0  0  0
  7  6  1  0  0  0  0
  7  8  1  1  0  0  0
  8 19  1  0  0  0  0
  8 20  1  0  0  0  0
  8 21  1  0  0  0  0
 10 22  1  0  0  0  0
 10 23  1  0  0  0  0
 10 24  1  0  0  0  0
 11 25  1  0  0  0  0
 11 26  1  0  0  0  0
 11 27  1  0  0  0  0
M  END
