
 OpenBabel02081909033D

 29 30  0  0  0  0  0  0  0  0999 V2000
   -0.7807   -1.5067    0.8966 C   0  0  0  0  0  0  0  0  0  0  0  0
    0.6221   -1.5523    0.3431 C   0  0  0  0  0  0  0  0  0  0  0  0
    1.1093   -0.1245    0.5805 C   0  0  2  0  0  0  0  0  0  0  0  0
   -1.3185   -0.1863    0.3266 C   0  0  2  0  0  0  0  0  0  0  0  0
   -0.0880    0.7596    0.1417 C   0  0  1  0  0  0  0  0  0  0  0  0
   -1.2063    1.0569    1.1629 C   0  0  0  0  0  0  0  0  0  0  0  0
   -2.4160   -0.1682   -0.7725 C   0  0  0  0  0  0  0  0  0  0  0  0
   -3.7428   -0.6736   -0.1961 C   0  0  0  0  0  0  0  0  0  0  0  0
   -2.0112   -1.0041   -1.9947 C   0  0  0  0  0  0  0  0  0  0  0  0
    2.3654    0.2031   -0.2398 C   0  0  0  0  0  0  0  0  0  0  0  0
    1.3798    0.0899    1.9480 O   0  0  0  0  0  0  0  0  0  0  0  0
   -1.3699   -2.4029    0.6121 H   0  0  0  0  0  0  0  0  0  0  0  0
   -0.7478   -1.4507    2.0077 H   0  0  0  0  0  0  0  0  0  0  0  0
    0.5545   -1.7389   -0.7532 H   0  0  0  0  0  0  0  0  0  0  0  0
    1.2627   -2.3415    0.7918 H   0  0  0  0  0  0  0  0  0  0  0  0
   -0.1519    0.9861   -0.9440 H   0  0  0  0  0  0  0  0  0  0  0  0
   -1.7386    1.9714    0.8269 H   0  0  0  0  0  0  0  0  0  0  0  0
   -0.8654    0.9536    2.2131 H   0  0  0  0  0  0  0  0  0  0  0  0
   -2.5796    0.8766   -1.1204 H   0  0  0  0  0  0  0  0  0  0  0  0
   -3.6535   -1.7248    0.1506 H   0  0  0  0  0  0  0  0  0  0  0  0
   -4.5405   -0.6222   -0.9676 H   0  0  0  0  0  0  0  0  0  0  0  0
   -4.0502   -0.0395    0.6627 H   0  0  0  0  0  0  0  0  0  0  0  0
   -1.8662   -2.0703   -1.7217 H   0  0  0  0  0  0  0  0  0  0  0  0
   -1.0691   -0.6175   -2.4362 H   0  0  0  0  0  0  0  0  0  0  0  0
   -2.8017   -0.9473   -2.7732 H   0  0  0  0  0  0  0  0  0  0  0  0
    2.1748    0.0606   -1.3253 H   0  0  0  0  0  0  0  0  0  0  0  0
    3.2059   -0.4591    0.0589 H   0  0  0  0  0  0  0  0  0  0  0  0
    2.6664    1.2587   -0.0689 H   0  0  0  0  0  0  0  0  0  0  0  0
    2.0730   -0.5641    2.2281 H   0  0  0  0  0  0  0  0  0  0  0  0
  1  4  1  0  0  0  0
  1 12  1  0  0  0  0
  1 13  1  0  0  0  0
  2  1  1  0  0  0  0
  2 14  1  0  0  0  0
  2 15  1  0  0  0  0
  3  2  1  0  0  0  0
  3 10  1  6  0  0  0
  3 11  1  0  0  0  0
  4  6  1  0  0  0  0
  4  7  1  6  0  0  0
  5  3  1  0  0  0  0
  5  4  1  0  0  0  0
  5 16  1  6  0  0  0
  6  5  1  0  0  0  0
  6 17  1  0  0  0  0
  6 18  1  0  0  0  0
  7  8  1  0  0  0  0
  7  9  1  0  0  0  0
  7 19  1  0  0  0  0
  8 20  1  0  0  0  0
  8 21  1  0  0  0  0
  8 22  1  0  0  0  0
  9 23  1  0  0  0  0
  9 24  1  0  0  0  0
  9 25  1  0  0  0  0
 10 26  1  0  0  0  0
 10 27  1  0  0  0  0
 10 28  1  0  0  0  0
 11 29  1  0  0  0  0
M  END
