
 OpenBabel09181911303D

 47 48  0  0  0  0  0  0  0  0999 V2000
    3.3581   -0.7860    0.1869 C   0  0  0  0  0  0  0  0  0  0  0  0
    3.2331    0.5768    0.3392 O   0  0  0  0  0  0  0  0  0  0  0  0
    4.2675    1.4326    0.5438 C   0  0  0  0  0  0  0  0  0  0  0  0
    3.9955    2.7971    0.7367 C   0  0  0  0  0  0  0  0  0  0  0  0
    5.0447    3.6872    0.9727 C   0  0  0  0  0  0  0  0  0  0  0  0
    6.3681    3.2398    1.0099 C   0  0  0  0  0  0  0  0  0  0  0  0
    6.6749    1.8835    0.7931 C   0  0  0  0  0  0  0  0  0  0  0  0
    5.6051    0.9912    0.5756 C   0  0  0  0  0  0  0  0  0  0  0  0
    8.0459    1.2784    0.8194 C   0  0  0  0  0  0  0  0  0  0  0  0
    9.2992    1.7921    0.7770 C   0  0  0  0  0  0  0  0  0  0  0  0
    9.8047    3.1909    0.5994 C   0  0  0  0  0  0  0  0  0  0  0  0
    9.0674    4.0736    0.2026 O   0  0  0  0  0  0  0  0  0  0  0  0
   11.2701    3.5556    0.7935 C   0  0  0  0  0  0  0  0  0  0  0  0
   12.1375    2.4215    1.2859 C   0  0  0  0  0  0  0  0  0  0  0  0
   12.9889    1.9771    0.5363 O   0  0  0  0  0  0  0  0  0  0  0  0
   11.8555    1.8158    2.6216 C   0  0  0  0  0  0  0  0  0  0  0  0
   12.4043    0.7255    3.2048 C   0  0  0  0  0  0  0  0  0  0  0  0
   13.5201   -0.1448    2.7425 C   0  0  0  0  0  0  0  0  0  0  0  0
   14.6515    0.3302    2.0535 C   0  0  0  0  0  0  0  0  0  0  0  0
   15.6750   -0.5536    1.6473 C   0  0  0  0  0  0  0  0  0  0  0  0
   15.5576   -1.9203    1.9383 C   0  0  0  0  0  0  0  0  0  0  0  0
   14.4465   -2.3923    2.6470 C   0  0  0  0  0  0  0  0  0  0  0  0
   13.4461   -1.5109    3.0554 C   0  0  0  0  0  0  0  0  0  0  0  0
   16.5255   -2.7730    1.5422 O   0  0  0  0  0  0  0  0  0  0  0  0
   16.7850   -0.1291    0.9871 O   0  0  0  0  0  0  0  0  0  0  0  0
   17.0852    1.1773    0.6619 C   0  0  0  0  0  0  0  0  0  0  0  0
    2.7314    3.2710    0.7127 O   0  0  0  0  0  0  0  0  0  0  0  0
    2.9549   -1.0895   -0.8006 H   0  0  0  0  0  0  0  0  0  0  0  0
    2.7966   -1.3020    0.9931 H   0  0  0  0  0  0  0  0  0  0  0  0
    2.5444   -1.2306    0.6351 H   0  0  0  0  0  0  0  0  0  0  0  0
    4.8319    4.7358    1.1407 H   0  0  0  0  0  0  0  0  0  0  0  0
    7.1093    3.9736    1.2407 H   0  0  0  0  0  0  0  0  0  0  0  0
    5.8175   -0.0602    0.4258 H   0  0  0  0  0  0  0  0  0  0  0  0
    8.0382    0.1921    0.8917 H   0  0  0  0  0  0  0  0  0  0  0  0
   10.0680    1.0323    0.8570 H   0  0  0  0  0  0  0  0  0  0  0  0
   11.6548    3.9171   -0.1856 H   0  0  0  0  0  0  0  0  0  0  0  0
   11.3489    4.3910    1.5219 H   0  0  0  0  0  0  0  0  0  0  0  0
   11.0303    2.2707    3.1641 H   0  0  0  0  0  0  0  0  0  0  0  0
   11.9190    0.4049    4.1239 H   0  0  0  0  0  0  0  0  0  0  0  0
   14.7596    1.3843    1.8632 H   0  0  0  0  0  0  0  0  0  0  0  0
   14.3557   -3.4452    2.8829 H   0  0  0  0  0  0  0  0  0  0  0  0
   12.5950   -1.9034    3.5995 H   0  0  0  0  0  0  0  0  0  0  0  0
   16.4798   -3.7235    1.7194 H   0  0  0  0  0  0  0  0  0  0  0  0
   18.0580    1.2030    0.1296 H   0  0  0  0  0  0  0  0  0  0  0  0
   17.1717    1.7905    1.5844 H   0  0  0  0  0  0  0  0  0  0  0  0
   16.3038    1.5982   -0.0058 H   0  0  0  0  0  0  0  0  0  0  0  0
    1.9615    2.7062    0.5569 H   0  0  0  0  0  0  0  0  0  0  0  0
  1  2  1  0  0  0  0
  1 28  1  0  0  0  0
  1 29  1  0  0  0  0
  1 30  1  0  0  0  0
  2  3  1  0  0  0  0
  3  4  2  0  0  0  0
  3  8  1  0  0  0  0
  4  5  1  0  0  0  0
  4 27  1  0  0  0  0
  5  6  2  0  0  0  0
  5 31  1  0  0  0  0
  6  7  1  0  0  0  0
  6 32  1  0  0  0  0
  7  8  2  0  0  0  0
  7  9  1  0  0  0  0
  8 33  1  0  0  0  0
  9 10  2  0  0  0  0
  9 34  1  0  0  0  0
 10 11  1  0  0  0  0
 10 35  1  0  0  0  0
 11 12  2  0  0  0  0
 11 13  1  0  0  0  0
 13 14  1  0  0  0  0
 13 36  1  0  0  0  0
 13 37  1  0  0  0  0
 14 15  2  0  0  0  0
 14 16  1  0  0  0  0
 16 17  2  0  0  0  0
 16 38  1  0  0  0  0
 17 18  1  0  0  0  0
 17 39  1  0  0  0  0
 18 19  2  0  0  0  0
 18 23  1  0  0  0  0
 19 20  1  0  0  0  0
 19 40  1  0  0  0  0
 20 21  2  0  0  0  0
 20 25  1  0  0  0  0
 21 22  1  0  0  0  0
 21 24  1  0  0  0  0
 22 23  2  0  0  0  0
 22 41  1  0  0  0  0
 23 42  1  0  0  0  0
 24 43  1  0  0  0  0
 25 26  1  0  0  0  0
 26 44  1  0  0  0  0
 26 45  1  0  0  0  0
 26 46  1  0  0  0  0
 27 47  1  0  0  0  0
M  END
