
 OpenBabel09231910333D

 26 26  0  0  0  0  0  0  0  0999 V2000
    0.5373    1.3674   -0.6183 C   0  0  0  0  0  0  0  0  0  0  0  0
    1.6292    0.3792   -0.1889 C   0  0  2  0  0  0  0  0  0  0  0  0
    1.1606   -1.0301   -0.6276 C   0  0  0  0  0  0  0  0  0  0  0  0
   -0.2632   -1.3445   -0.2207 C   0  0  0  0  0  0  0  0  0  0  0  0
   -1.1389   -0.3859    0.1626 C   0  0  0  0  0  0  0  0  0  0  0  0
   -0.7669    1.0857    0.1488 C   0  0  0  0  0  0  0  0  0  0  0  0
    1.9592    0.5414    1.3049 C   0  0  0  0  0  0  0  0  0  0  0  0
   -2.5201   -0.7660    0.6229 C   0  0  0  0  0  0  0  0  0  0  0  0
    1.7526   -0.5537    2.3296 C   0  0  0  0  0  0  0  0  0  0  0  0
    2.4679    1.7088    1.7350 C   0  0  0  0  0  0  0  0  0  0  0  0
    0.3563    1.2298   -1.7082 H   0  0  0  0  0  0  0  0  0  0  0  0
    0.8372    2.4263   -0.4692 H   0  0  0  0  0  0  0  0  0  0  0  0
    2.5710    0.5856   -0.7445 H   0  0  0  0  0  0  0  0  0  0  0  0
    1.1967   -1.1256   -1.7344 H   0  0  0  0  0  0  0  0  0  0  0  0
    1.8684   -1.7876   -0.2302 H   0  0  0  0  0  0  0  0  0  0  0  0
   -0.5776   -2.3839   -0.2461 H   0  0  0  0  0  0  0  0  0  0  0  0
   -0.6925    1.4246    1.2044 H   0  0  0  0  0  0  0  0  0  0  0  0
   -1.5671    1.6775   -0.3455 H   0  0  0  0  0  0  0  0  0  0  0  0
   -2.6844   -1.8646    0.5971 H   0  0  0  0  0  0  0  0  0  0  0  0
   -3.2748   -0.2847   -0.0336 H   0  0  0  0  0  0  0  0  0  0  0  0
   -2.6708   -0.4150    1.6651 H   0  0  0  0  0  0  0  0  0  0  0  0
    1.3289   -1.4873    1.9211 H   0  0  0  0  0  0  0  0  0  0  0  0
    1.0547   -0.1944    3.1155 H   0  0  0  0  0  0  0  0  0  0  0  0
    2.7248   -0.8069    2.8029 H   0  0  0  0  0  0  0  0  0  0  0  0
    2.6482    2.5279    1.0462 H   0  0  0  0  0  0  0  0  0  0  0  0
    2.7144    1.8536    2.7830 H   0  0  0  0  0  0  0  0  0  0  0  0
  1  6  1  0  0  0  0
  1 11  1  0  0  0  0
  1 12  1  0  0  0  0
  2  7  1  0  0  0  0
  2  1  1  0  0  0  0
  2 13  1  6  0  0  0
  3  2  1  0  0  0  0
  3 14  1  0  0  0  0
  3 15  1  0  0  0  0
  4  3  1  0  0  0  0
  4 16  1  0  0  0  0
  5  4  2  0  0  0  0
  5  8  1  0  0  0  0
  6  5  1  0  0  0  0
  6 17  1  0  0  0  0
  6 18  1  0  0  0  0
  7  9  1  0  0  0  0
  7 10  2  0  0  0  0
  8 19  1  0  0  0  0
  8 20  1  0  0  0  0
  8 21  1  0  0  0  0
  9 22  1  0  0  0  0
  9 23  1  0  0  0  0
  9 24  1  0  0  0  0
 10 25  1  0  0  0  0
 10 26  1  0  0  0  0
M  END
