
 OpenBabel02061912473D

 26 25  0  0  0  0  0  0  0  0999 V2000
    0.9042   -0.0379   -0.0031 C   0  0  0  0  0  0  0  0  0  0  0  0
    0.1735   -1.1837   -0.0771 C   0  0  0  0  0  0  0  0  0  0  0  0
   -1.3246   -1.1809   -0.0764 C   0  0  0  0  0  0  0  0  0  0  0  0
    0.8312   -2.5445   -0.1655 C   0  0  0  0  0  0  0  0  0  0  0  0
    2.4169   -0.0205   -0.0024 C   0  0  0  0  0  0  0  0  0  0  0  0
   -2.1016   -0.0892   -0.0054 C   0  0  0  0  0  0  0  0  0  0  0  0
    2.9737    1.3820    0.0883 C   0  0  0  0  0  0  0  0  0  0  0  0
    4.3007    1.6539    0.1055 C   0  0  0  0  0  0  0  0  0  0  0  0
    5.3609    0.5786    0.0355 C   0  0  0  0  0  0  0  0  0  0  0  0
    4.7679    3.0833    0.1979 C   0  0  0  0  0  0  0  0  0  0  0  0
    0.4017    0.9166    0.0589 H   0  0  0  0  0  0  0  0  0  0  0  0
   -1.8255   -2.1433   -0.1387 H   0  0  0  0  0  0  0  0  0  0  0  0
    1.9378   -2.5253   -0.1647 H   0  0  0  0  0  0  0  0  0  0  0  0
    0.5078   -3.0457   -1.1020 H   0  0  0  0  0  0  0  0  0  0  0  0
    0.5084   -3.1624    0.6986 H   0  0  0  0  0  0  0  0  0  0  0  0
    2.7778   -0.4830   -0.9465 H   0  0  0  0  0  0  0  0  0  0  0  0
    2.7784   -0.6010    0.8738 H   0  0  0  0  0  0  0  0  0  0  0  0
   -1.7079    0.9149    0.0596 H   0  0  0  0  0  0  0  0  0  0  0  0
   -3.1807   -0.2052   -0.0125 H   0  0  0  0  0  0  0  0  0  0  0  0
    2.2738    2.2122    0.1423 H   0  0  0  0  0  0  0  0  0  0  0  0
    4.9588   -0.4509   -0.0311 H   0  0  0  0  0  0  0  0  0  0  0  0
    5.9978    0.6338    0.9430 H   0  0  0  0  0  0  0  0  0  0  0  0
    5.9972    0.7505   -0.8577 H   0  0  0  0  0  0  0  0  0  0  0  0
    3.9236    3.8041    0.2449 H   0  0  0  0  0  0  0  0  0  0  0  0
    5.3847    3.3294   -0.6917 H   0  0  0  0  0  0  0  0  0  0  0  0
    5.3852    3.2126    1.1115 H   0  0  0  0  0  0  0  0  0  0  0  0
  1  2  2  0  0  0  0
  1  5  1  0  0  0  0
  1 11  1  0  0  0  0
  2  3  1  0  0  0  0
  2  4  1  0  0  0  0
  3  6  2  0  0  0  0
  3 12  1  0  0  0  0
  4 13  1  0  0  0  0
  4 14  1  0  0  0  0
  4 15  1  0  0  0  0
  5  7  1  0  0  0  0
  5 16  1  0  0  0  0
  5 17  1  0  0  0  0
  6 18  1  0  0  0  0
  6 19  1  0  0  0  0
  7  8  2  0  0  0  0
  7 20  1  0  0  0  0
  8  9  1  0  0  0  0
  8 10  1  0  0  0  0
  9 21  1  0  0  0  0
  9 22  1  0  0  0  0
  9 23  1  0  0  0  0
 10 24  1  0  0  0  0
 10 25  1  0  0  0  0
 10 26  1  0  0  0  0
M  END
