
 OpenBabel02081909523D

 42 44  0  0  0  0  0  0  0  0999 V2000
   -1.5779   -0.5794   -0.5137 C   0  0  2  0  0  0  0  0  0  0  0  0
   -1.9510    0.0043   -1.9196 C   0  0  0  0  0  0  0  0  0  0  0  0
   -0.9613    1.1934   -2.1767 C   0  0  0  0  0  0  0  0  0  0  0  0
   -0.1337   -0.0815   -0.3458 C   0  0  2  0  0  0  0  0  0  0  0  0
   -0.3340    1.3677   -0.8095 C   0  0  1  0  0  0  0  0  0  0  0  0
    1.6844    1.1143    0.5721 C   0  0  2  0  0  0  0  0  0  0  0  0
    0.8359   -1.0183   -1.1687 C   0  0  0  0  0  0  0  0  0  0  0  0
    2.2101   -0.4150   -1.4084 C   0  0  0  0  0  0  0  0  0  0  0  0
    0.5103    0.1709    1.0156 C   0  0  0  0  0  0  0  0  0  0  0  0
   -1.1797    1.8052   -0.2177 H   0  0  0  0  0  0  0  0  0  0  0  0
    0.9108    2.1873   -0.3187 C   0  0  0  0  0  0  0  0  0  0  0  0
   -1.8653   -2.0717   -0.3291 C   0  0  0  0  0  0  0  0  0  0  0  0
    0.4369    3.3143    0.6570 C   0  0  0  0  0  0  0  0  0  0  0  0
    1.6487    2.9611   -1.4396 C   0  0  0  0  0  0  0  0  0  0  0  0
    4.0744    0.9957   -0.4323 C   0  0  0  0  0  0  0  0  0  0  0  0
    2.7801    0.2132   -0.1206 C   0  0  1  0  0  0  0  0  0  0  0  0
    3.1230   -0.8062    0.7949 O   0  0  0  0  0  0  0  0  0  0  0  0
   -2.1943   -0.0407    0.2451 H   0  0  0  0  0  0  0  0  0  0  0  0
   -3.0171    0.3173   -1.8969 H   0  0  0  0  0  0  0  0  0  0  0  0
   -1.8130   -0.7266   -2.7461 H   0  0  0  0  0  0  0  0  0  0  0  0
   -1.4327    2.1011   -2.6090 H   0  0  0  0  0  0  0  0  0  0  0  0
   -0.1612    0.8576   -2.8699 H   0  0  0  0  0  0  0  0  0  0  0  0
    2.1865    1.5752    1.4525 H   0  0  0  0  0  0  0  0  0  0  0  0
    0.4288   -1.3015   -2.1625 H   0  0  0  0  0  0  0  0  0  0  0  0
    0.9579   -1.9626   -0.5934 H   0  0  0  0  0  0  0  0  0  0  0  0
    2.9012   -1.1702   -1.8424 H   0  0  0  0  0  0  0  0  0  0  0  0
    2.0862    0.3374   -2.1915 H   0  0  0  0  0  0  0  0  0  0  0  0
    0.8054   -0.7509    1.5606 H   0  0  0  0  0  0  0  0  0  0  0  0
   -0.1955    0.7114    1.6833 H   0  0  0  0  0  0  0  0  0  0  0  0
   -1.3206   -2.6845   -1.0763 H   0  0  0  0  0  0  0  0  0  0  0  0
   -2.9524   -2.2596   -0.4551 H   0  0  0  0  0  0  0  0  0  0  0  0
   -1.5633   -2.3887    0.6913 H   0  0  0  0  0  0  0  0  0  0  0  0
   -0.1378    2.9251    1.5221 H   0  0  0  0  0  0  0  0  0  0  0  0
   -0.2173    4.0451    0.1326 H   0  0  0  0  0  0  0  0  0  0  0  0
    1.3094    3.8661    1.0699 H   0  0  0  0  0  0  0  0  0  0  0  0
    2.0198    2.3594   -2.2776 H   0  0  0  0  0  0  0  0  0  0  0  0
    2.4992    3.5394   -1.0196 H   0  0  0  0  0  0  0  0  0  0  0  0
    0.9524    3.6889   -1.9098 H   0  0  0  0  0  0  0  0  0  0  0  0
    3.9369    1.7962   -1.1756 H   0  0  0  0  0  0  0  0  0  0  0  0
    4.8428    0.3102   -0.8500 H   0  0  0  0  0  0  0  0  0  0  0  0
    4.4840    1.4435    0.4980 H   0  0  0  0  0  0  0  0  0  0  0  0
    3.7474   -1.4375    0.3490 H   0  0  0  0  0  0  0  0  0  0  0  0
  1  4  1  0  0  0  0
  1 12  1  0  0  0  0
  1 18  1  1  0  0  0
  2  1  1  0  0  0  0
  2 19  1  0  0  0  0
  2 20  1  0  0  0  0
  3  2  1  0  0  0  0
  3  5  1  0  0  0  0
  3 21  1  0  0  0  0
  3 22  1  0  0  0  0
  4  7  1  6  0  0  0
  4  9  1  0  0  0  0
  5  4  1  0  0  0  0
  5 10  1  1  0  0  0
  6 11  1  0  0  0  0
  6 16  1  0  0  0  0
  6  9  1  0  0  0  0
  6 23  1  1  0  0  0
  7 24  1  0  0  0  0
  7 25  1  0  0  0  0
  8  7  1  0  0  0  0
  8 26  1  0  0  0  0
  8 27  1  0  0  0  0
  9 28  1  0  0  0  0
  9 29  1  0  0  0  0
 11  5  1  0  0  0  0
 11 13  1  0  0  0  0
 11 14  1  0  0  0  0
 12 30  1  0  0  0  0
 12 31  1  0  0  0  0
 12 32  1  0  0  0  0
 13 33  1  0  0  0  0
 13 34  1  0  0  0  0
 13 35  1  0  0  0  0
 14 36  1  0  0  0  0
 14 37  1  0  0  0  0
 14 38  1  0  0  0  0
 15 39  1  0  0  0  0
 15 40  1  0  0  0  0
 15 41  1  0  0  0  0
 16  8  1  0  0  0  0
 16 15  1  6  0  0  0
 16 17  1  0  0  0  0
 17 42  1  0  0  0  0
M  END
