  ETHYL LAURATE.mol	106-33-2
  NIST    07081503393D 1   1.00000  -700.84541
Copyright by the U.S. Sec. Commerce on behalf of U.S.A. All rights reserved.
 44 43  0  0  0  0  0  0  0  0999 V2000
   68.8045   29.8881   -0.4237 C    0  0  0  0  0  0  0  0  0  0  0  0
   67.5356   29.0717   -0.2659 C    0  0  0  0  0  0  0  0  0  0  0  0
   67.7769   27.7616   -0.5112 O    0  0  0  0  0  0  0  0  0  0  0  0
   66.4475   29.5142    0.0361 O    0  0  0  0  0  0  0  0  0  0  0  0
   68.5902   31.3853   -0.1943 C    0  0  0  0  0  0  0  0  0  0  0  0
   66.6515   26.8599   -0.3869 C    0  0  0  0  0  0  0  0  0  0  0  0
   69.8830   32.1988   -0.3307 C    0  0  0  0  0  0  0  0  0  0  0  0
   66.4664   26.3989    1.0513 C    0  0  0  0  0  0  0  0  0  0  0  0
   69.6765   33.7020   -0.1051 C    0  0  0  0  0  0  0  0  0  0  0  0
   70.9666   34.5240   -0.2223 C    0  0  0  0  0  0  0  0  0  0  0  0
   70.7565   36.0269    0.0021 C    0  0  0  0  0  0  0  0  0  0  0  0
   72.0469   36.8506   -0.1004 C    0  0  0  0  0  0  0  0  0  0  0  0
   71.8338   38.3532    0.1238 C    0  0  0  0  0  0  0  0  0  0  0  0
   73.1238   39.1782    0.0314 C    0  0  0  0  0  0  0  0  0  0  0  0
   72.9094   40.6806    0.2556 C    0  0  0  0  0  0  0  0  0  0  0  0
   74.2026   41.4971    0.1646 C    0  0  0  0  0  0  0  0  0  0  0  0
   69.5499   29.4831    0.2746 H    0  0  0  0  0  0  0  0  0  0  0  0
   69.2091   29.6919   -1.4257 H    0  0  0  0  0  0  0  0  0  0  0  0
   67.8395   31.7540   -0.9047 H    0  0  0  0  0  0  0  0  0  0  0  0
   68.1566   31.5368    0.8020 H    0  0  0  0  0  0  0  0  0  0  0  0
   65.7548   27.3615   -0.7590 H    0  0  0  0  0  0  0  0  0  0  0  0
   66.8999   26.0241   -1.0460 H    0  0  0  0  0  0  0  0  0  0  0  0
   70.6292   31.8236    0.3857 H    0  0  0  0  0  0  0  0  0  0  0  0
   70.3154   32.0377   -1.3297 H    0  0  0  0  0  0  0  0  0  0  0  0
   65.6573   25.6613    1.1055 H    0  0  0  0  0  0  0  0  0  0  0  0
   67.3817   25.9339    1.4323 H    0  0  0  0  0  0  0  0  0  0  0  0
   66.2036   27.2435    1.6946 H    0  0  0  0  0  0  0  0  0  0  0  0
   68.9378   34.0785   -0.8280 H    0  0  0  0  0  0  0  0  0  0  0  0
   69.2341   33.8607    0.8895 H    0  0  0  0  0  0  0  0  0  0  0  0
   71.7034   34.1482    0.5033 H    0  0  0  0  0  0  0  0  0  0  0  0
   71.4114   34.3638   -1.2159 H    0  0  0  0  0  0  0  0  0  0  0  0
   70.0258   36.4041   -0.7288 H    0  0  0  0  0  0  0  0  0  0  0  0
   70.3032   36.1853    0.9920 H    0  0  0  0  0  0  0  0  0  0  0  0
   72.7765   36.4743    0.6322 H    0  0  0  0  0  0  0  0  0  0  0  0
   72.5021   36.6921   -1.0895 H    0  0  0  0  0  0  0  0  0  0  0  0
   71.1083   38.7304   -0.6123 H    0  0  0  0  0  0  0  0  0  0  0  0
   71.3729   38.5104    1.1104 H    0  0  0  0  0  0  0  0  0  0  0  0
   73.8496   38.8025    0.7683 H    0  0  0  0  0  0  0  0  0  0  0  0
   73.5864   39.0222   -0.9548 H    0  0  0  0  0  0  0  0  0  0  0  0
   72.1861   41.0568   -0.4820 H    0  0  0  0  0  0  0  0  0  0  0  0
   72.4467   40.8367    1.2405 H    0  0  0  0  0  0  0  0  0  0  0  0
   74.0154   42.5645    0.3285 H    0  0  0  0  0  0  0  0  0  0  0  0
   74.9327   41.1681    0.9144 H    0  0  0  0  0  0  0  0  0  0  0  0
   74.6715   41.3890   -0.8214 H    0  0  0  0  0  0  0  0  0  0  0  0
  1  2  1  0  0  0  0
  1  5  1  0  0  0  0
  1 17  1  0  0  0  0
  1 18  1  0  0  0  0
  2  3  1  0  0  0  0
  2  4  2  0  0  0  0
  3  6  1  0  0  0  0
  5  7  1  0  0  0  0
  5 19  1  0  0  0  0
  5 20  1  0  0  0  0
  6  8  1  0  0  0  0
  6 21  1  0  0  0  0
  6 22  1  0  0  0  0
  7  9  1  0  0  0  0
  7 23  1  0  0  0  0
  7 24  1  0  0  0  0
  8 25  1  0  0  0  0
  8 26  1  0  0  0  0
  8 27  1  0  0  0  0
  9 10  1  0  0  0  0
  9 28  1  0  0  0  0
  9 29  1  0  0  0  0
 10 11  1  0  0  0  0
 10 30  1  0  0  0  0
 10 31  1  0  0  0  0
 11 12  1  0  0  0  0
 11 32  1  0  0  0  0
 11 33  1  0  0  0  0
 12 13  1  0  0  0  0
 12 34  1  0  0  0  0
 12 35  1  0  0  0  0
 13 14  1  0  0  0  0
 13 36  1  0  0  0  0
 13 37  1  0  0  0  0
 14 15  1  0  0  0  0
 14 38  1  0  0  0  0
 14 39  1  0  0  0  0
 15 16  1  0  0  0  0
 15 40  1  0  0  0  0
 15 41  1  0  0  0  0
 16 42  1  0  0  0  0
 16 43  1  0  0  0  0
 16 44  1  0  0  0  0
M  END
