
 OpenBabel12021911453D

 50 49  0  0  0  0  0  0  0  0999 V2000
    5.6349    0.9042   -0.8491 C   0  0  0  0  0  0  0  0  0  0  0  0
    4.4035    0.0129   -1.0498 C   0  0  0  0  0  0  0  0  0  0  0  0
    4.8075   -1.4606   -1.1701 C   0  0  0  0  0  0  0  0  0  0  0  0
    5.2355    2.3800   -0.7320 C   0  0  0  0  0  0  0  0  0  0  0  0
    3.5995   -2.3299   -1.3661 C   0  0  0  0  0  0  0  0  0  0  0  0
    6.4701    3.2678   -0.5350 C   0  0  0  0  0  0  0  0  0  0  0  0
    2.6340   -2.3570   -0.4085 O   0  0  0  0  0  0  0  0  0  0  0  0
    3.4998   -3.0074   -2.3799 O   0  0  0  0  0  0  0  0  0  0  0  0
    6.0760    4.7453   -0.4209 C   0  0  0  0  0  0  0  0  0  0  0  0
    1.4746   -3.1105   -0.4714 C   0  0  0  0  0  0  0  0  0  0  0  0
    7.3139    5.6294   -0.2281 C   0  0  0  0  0  0  0  0  0  0  0  0
    0.2665   -2.1884   -0.4034 C   0  0  0  0  0  0  0  0  0  0  0  0
    6.9248    7.1083   -0.1170 C   0  0  0  0  0  0  0  0  0  0  0  0
    8.1656    7.9892    0.0721 C   0  0  0  0  0  0  0  0  0  0  0  0
    7.7802    9.4693    0.1809 C   0  0  0  0  0  0  0  0  0  0  0  0
    9.0227   10.3482    0.3675 C   0  0  0  0  0  0  0  0  0  0  0  0
    8.6385   11.8284    0.4752 C   0  0  0  0  0  0  0  0  0  0  0  0
    9.8732   12.7058    0.6600 C   0  0  0  0  0  0  0  0  0  0  0  0
    6.1656    0.5930    0.0778 H   0  0  0  0  0  0  0  0  0  0  0  0
    6.3227    0.7786   -1.7144 H   0  0  0  0  0  0  0  0  0  0  0  0
    3.8722    0.3228   -1.9770 H   0  0  0  0  0  0  0  0  0  0  0  0
    3.7158    0.1389   -0.1843 H   0  0  0  0  0  0  0  0  0  0  0  0
    5.3330   -1.7853   -0.2462 H   0  0  0  0  0  0  0  0  0  0  0  0
    5.5004   -1.5823   -2.0323 H   0  0  0  0  0  0  0  0  0  0  0  0
    4.7044    2.6909   -1.6588 H   0  0  0  0  0  0  0  0  0  0  0  0
    4.5490    2.5076    0.1339 H   0  0  0  0  0  0  0  0  0  0  0  0
    7.0013    2.9572    0.3918 H   0  0  0  0  0  0  0  0  0  0  0  0
    7.1562    3.1380   -1.4011 H   0  0  0  0  0  0  0  0  0  0  0  0
    5.5444    5.0557   -1.3476 H   0  0  0  0  0  0  0  0  0  0  0  0
    5.3913    4.8772    0.4459 H   0  0  0  0  0  0  0  0  0  0  0  0
    1.4118   -3.7157   -1.4021 H   0  0  0  0  0  0  0  0  0  0  0  0
    1.4525   -3.8057    0.3942 H   0  0  0  0  0  0  0  0  0  0  0  0
    7.8456    5.3192    0.6986 H   0  0  0  0  0  0  0  0  0  0  0  0
    7.9982    5.4951   -1.0950 H   0  0  0  0  0  0  0  0  0  0  0  0
   -0.6667   -2.7896   -0.4285 H   0  0  0  0  0  0  0  0  0  0  0  0
    0.2711   -1.4930   -1.2695 H   0  0  0  0  0  0  0  0  0  0  0  0
    0.2898   -1.5984    0.5374 H   0  0  0  0  0  0  0  0  0  0  0  0
    6.3928    7.4182   -1.0436 H   0  0  0  0  0  0  0  0  0  0  0  0
    6.2417    7.2443    0.7505 H   0  0  0  0  0  0  0  0  0  0  0  0
    8.6977    7.6796    0.9987 H   0  0  0  0  0  0  0  0  0  0  0  0
    8.8483    7.8515   -0.7955 H   0  0  0  0  0  0  0  0  0  0  0  0
    7.2478    9.7788   -0.7456 H   0  0  0  0  0  0  0  0  0  0  0  0
    7.0983    9.6082    1.0489 H   0  0  0  0  0  0  0  0  0  0  0  0
    9.5552   10.0391    1.2941 H   0  0  0  0  0  0  0  0  0  0  0  0
    9.7045   10.2088   -0.5005 H   0  0  0  0  0  0  0  0  0  0  0  0
    8.1087   12.1453   -0.4496 H   0  0  0  0  0  0  0  0  0  0  0  0
    7.9600   11.9763    1.3436 H   0  0  0  0  0  0  0  0  0  0  0  0
    9.5659   13.7702    0.7348 H   0  0  0  0  0  0  0  0  0  0  0  0
   10.4110   12.4247    1.5906 H   0  0  0  0  0  0  0  0  0  0  0  0
   10.5597   12.5939   -0.2062 H   0  0  0  0  0  0  0  0  0  0  0  0
  1  2  1  0  0  0  0
  1  4  1  0  0  0  0
  1 19  1  0  0  0  0
  1 20  1  0  0  0  0
  2  3  1  0  0  0  0
  2 21  1  0  0  0  0
  2 22  1  0  0  0  0
  3  5  1  0  0  0  0
  3 23  1  0  0  0  0
  3 24  1  0  0  0  0
  4  6  1  0  0  0  0
  4 25  1  0  0  0  0
  4 26  1  0  0  0  0
  5  7  1  0  0  0  0
  5  8  2  0  0  0  0
  6  9  1  0  0  0  0
  6 27  1  0  0  0  0
  6 28  1  0  0  0  0
  7 10  1  0  0  0  0
  9 11  1  0  0  0  0
  9 29  1  0  0  0  0
  9 30  1  0  0  0  0
 10 12  1  0  0  0  0
 10 31  1  0  0  0  0
 10 32  1  0  0  0  0
 11 13  1  0  0  0  0
 11 33  1  0  0  0  0
 11 34  1  0  0  0  0
 12 35  1  0  0  0  0
 12 36  1  0  0  0  0
 12 37  1  0  0  0  0
 13 14  1  0  0  0  0
 13 38  1  0  0  0  0
 13 39  1  0  0  0  0
 14 15  1  0  0  0  0
 14 40  1  0  0  0  0
 14 41  1  0  0  0  0
 15 16  1  0  0  0  0
 15 42  1  0  0  0  0
 15 43  1  0  0  0  0
 16 17  1  0  0  0  0
 16 44  1  0  0  0  0
 16 45  1  0  0  0  0
 17 18  1  0  0  0  0
 17 46  1  0  0  0  0
 17 47  1  0  0  0  0
 18 48  1  0  0  0  0
 18 49  1  0  0  0  0
 18 50  1  0  0  0  0
M  END
