
 OpenBabel02061909593D

 26 26  0  0  0  0  0  0  0  0999 V2000
    1.5113   -0.3395   -0.0918 C   0  0  0  0  0  0  0  0  0  0  0  0
    0.9793    1.0675   -0.1310 C   0  0  0  0  0  0  0  0  0  0  0  0
    0.4659   -1.4237   -0.0771 C   0  0  0  0  0  0  0  0  0  0  0  0
   -0.3419    1.3682   -0.1412 C   0  0  0  0  0  0  0  0  0  0  0  0
   -1.3819    0.2617   -0.1176 C   0  0  0  0  0  0  0  0  0  0  0  0
   -0.8491    2.8209   -0.2032 C   0  0  0  0  0  0  0  0  0  0  0  0
   -0.8450   -1.1415   -0.0910 C   0  0  0  0  0  0  0  0  0  0  0  0
    0.9087   -2.8609   -0.0464 C   0  0  0  0  0  0  0  0  0  0  0  0
   -1.6914    3.1646    1.0355 C   0  0  0  0  0  0  0  0  0  0  0  0
    0.2479    3.8902   -0.3634 C   0  0  0  0  0  0  0  0  0  0  0  0
    2.1410   -0.4443    0.8171 H   0  0  0  0  0  0  0  0  0  0  0  0
    2.1519   -0.4862   -0.9871 H   0  0  0  0  0  0  0  0  0  0  0  0
    1.7263    1.8499   -0.1518 H   0  0  0  0  0  0  0  0  0  0  0  0
   -2.0174    0.3628   -1.0226 H   0  0  0  0  0  0  0  0  0  0  0  0
   -2.0200    0.3736    0.7811 H   0  0  0  0  0  0  0  0  0  0  0  0
   -1.5000    2.9040   -1.1011 H   0  0  0  0  0  0  0  0  0  0  0  0
   -1.5644   -1.9564   -0.0796 H   0  0  0  0  0  0  0  0  0  0  0  0
    2.0169   -2.9356   -0.0379 H   0  0  0  0  0  0  0  0  0  0  0  0
    0.5275   -3.3922   -0.9441 H   0  0  0  0  0  0  0  0  0  0  0  0
    0.5160   -3.3571    0.8662 H   0  0  0  0  0  0  0  0  0  0  0  0
   -1.0777    3.0795    1.9581 H   0  0  0  0  0  0  0  0  0  0  0  0
   -2.5734    2.4996    1.1246 H   0  0  0  0  0  0  0  0  0  0  0  0
   -2.0805    4.2027    0.9605 H   0  0  0  0  0  0  0  0  0  0  0  0
    0.9266    3.9025    0.5166 H   0  0  0  0  0  0  0  0  0  0  0  0
   -0.2105    4.8980   -0.4585 H   0  0  0  0  0  0  0  0  0  0  0  0
    0.8359    3.7044   -1.2874 H   0  0  0  0  0  0  0  0  0  0  0  0
  1  3  1  0  0  0  0
  1 11  1  0  0  0  0
  1 12  1  0  0  0  0
  2  1  1  0  0  0  0
  2 13  1  0  0  0  0
  3  7  2  0  0  0  0
  3  8  1  0  0  0  0
  4  2  2  0  0  0  0
  4  6  1  0  0  0  0
  5  4  1  0  0  0  0
  5 14  1  0  0  0  0
  5 15  1  0  0  0  0
  6  9  1  0  0  0  0
  6 10  1  0  0  0  0
  6 16  1  0  0  0  0
  7  5  1  0  0  0  0
  7 17  1  0  0  0  0
  8 18  1  0  0  0  0
  8 19  1  0  0  0  0
  8 20  1  0  0  0  0
  9 21  1  0  0  0  0
  9 22  1  0  0  0  0
  9 23  1  0  0  0  0
 10 24  1  0  0  0  0
 10 25  1  0  0  0  0
 10 26  1  0  0  0  0
M  END
