
 OpenBabel02061910323D

 39 39  0  0  0  0  0  0  0  0999 V2000
   -1.8456   -1.9588   -0.0556 C   0  0  0  0  0  0  0  0  0  0  0  0
   -1.8816   -0.8739   -1.0963 C   0  0  0  0  0  0  0  0  0  0  0  0
   -0.5267   -2.7250   -0.1245 C   0  0  0  0  0  0  0  0  0  0  0  0
   -1.8598    0.4600   -0.8623 C   0  0  0  0  0  0  0  0  0  0  0  0
   -1.7698    1.0876    0.5324 C   0  0  0  0  0  0  0  0  0  0  0  0
   -1.9466    1.3861   -2.0592 C   0  0  0  0  0  0  0  0  0  0  0  0
   -0.5812    2.0557    0.6947 C   0  0  0  0  0  0  0  0  0  0  0  0
    0.6312   -1.8464    0.3156 C   0  0  0  0  0  0  0  0  0  0  0  0
    1.0997   -0.7355   -0.5800 C   0  0  0  0  0  0  0  0  0  0  0  0
    1.2935   -2.1855    1.4326 C   0  0  0  0  0  0  0  0  0  0  0  0
    1.2487    0.6032   -0.3448 C   0  0  0  0  0  0  0  0  0  0  0  0
    0.8547    1.4645    0.8641 C   0  0  2  0  0  0  0  0  0  0  0  0
    1.2495    0.9322    2.2741 C   0  0  0  0  0  0  0  0  0  0  0  0
    2.7875    0.8010    2.3607 C   0  0  0  0  0  0  0  0  0  0  0  0
    0.8056    1.8508    3.4282 C   0  0  0  0  0  0  0  0  0  0  0  0
   -2.6939   -2.6445   -0.2657 H   0  0  0  0  0  0  0  0  0  0  0  0
   -1.9826   -1.6148    0.9834 H   0  0  0  0  0  0  0  0  0  0  0  0
   -1.9136   -1.2190   -2.1268 H   0  0  0  0  0  0  0  0  0  0  0  0
   -0.3418   -3.1312   -1.1427 H   0  0  0  0  0  0  0  0  0  0  0  0
   -0.6364   -3.5967    0.5587 H   0  0  0  0  0  0  0  0  0  0  0  0
   -1.7484    0.3898    1.3848 H   0  0  0  0  0  0  0  0  0  0  0  0
   -2.6992    1.6874    0.6409 H   0  0  0  0  0  0  0  0  0  0  0  0
   -2.0568    0.8362   -3.0184 H   0  0  0  0  0  0  0  0  0  0  0  0
   -1.0317    2.0025   -2.1554 H   0  0  0  0  0  0  0  0  0  0  0  0
   -2.8287    2.0506   -1.9483 H   0  0  0  0  0  0  0  0  0  0  0  0
   -0.7941    2.7216    1.5523 H   0  0  0  0  0  0  0  0  0  0  0  0
   -0.5813    2.7543   -0.1656 H   0  0  0  0  0  0  0  0  0  0  0  0
    1.3141   -1.0515   -1.5970 H   0  0  0  0  0  0  0  0  0  0  0  0
    0.9713   -3.0256    2.0403 H   0  0  0  0  0  0  0  0  0  0  0  0
    2.1796   -1.6696    1.7465 H   0  0  0  0  0  0  0  0  0  0  0  0
    1.6078    1.1804   -1.1934 H   0  0  0  0  0  0  0  0  0  0  0  0
    1.4675    2.3906    0.7648 H   0  0  0  0  0  0  0  0  0  0  0  0
    0.7411   -0.0257    2.4583 H   0  0  0  0  0  0  0  0  0  0  0  0
    3.2666    1.8008    2.2792 H   0  0  0  0  0  0  0  0  0  0  0  0
    3.2084    0.1872    1.5409 H   0  0  0  0  0  0  0  0  0  0  0  0
    3.0840    0.3495    3.3315 H   0  0  0  0  0  0  0  0  0  0  0  0
    1.2268    2.8723    3.3085 H   0  0  0  0  0  0  0  0  0  0  0  0
    1.1509    1.4359    4.3997 H   0  0  0  0  0  0  0  0  0  0  0  0
   -0.2994    1.9102    3.4962 H   0  0  0  0  0  0  0  0  0  0  0  0
  1  2  1  0  0  0  0
  1 16  1  0  0  0  0
  1 17  1  0  0  0  0
  2  4  2  0  0  0  0
  2 18  1  0  0  0  0
  3  1  1  0  0  0  0
  3 19  1  0  0  0  0
  3 20  1  0  0  0  0
  4  5  1  0  0  0  0
  4  6  1  0  0  0  0
  5  7  1  0  0  0  0
  5 21  1  0  0  0  0
  5 22  1  0  0  0  0
  6 23  1  0  0  0  0
  6 24  1  0  0  0  0
  6 25  1  0  0  0  0
  7 12  1  0  0  0  0
  7 26  1  0  0  0  0
  7 27  1  0  0  0  0
  8  3  1  0  0  0  0
  8 10  2  0  0  0  0
  9  8  1  0  0  0  0
  9 28  1  0  0  0  0
 10 29  1  0  0  0  0
 10 30  1  0  0  0  0
 11  9  2  0  0  0  0
 11 31  1  0  0  0  0
 12 11  1  0  0  0  0
 12 13  1  0  0  0  0
 12 32  1  6  0  0  0
 13 14  1  0  0  0  0
 13 15  1  0  0  0  0
 13 33  1  0  0  0  0
 14 34  1  0  0  0  0
 14 35  1  0  0  0  0
 14 36  1  0  0  0  0
 15 37  1  0  0  0  0
 15 38  1  0  0  0  0
 15 39  1  0  0  0  0
M  END
