
 OpenBabel09301909313D

 51 50  0  0  0  0  0  0  0  0999 V2000
    0.8187   -0.1742   -0.0388 C   0  0  0  0  0  0  0  0  0  0  0  0
    2.3443   -0.1507   -0.0266 C   0  0  0  0  0  0  0  0  0  0  0  0
    2.8732    1.0256    0.8021 C   0  0  0  0  0  0  0  0  0  0  0  0
    4.4064    1.0457    0.8119 C   0  0  0  0  0  0  0  0  0  0  0  0
    4.9360    2.2220    1.6406 C   0  0  0  0  0  0  0  0  0  0  0  0
    6.4692    2.2421    1.6504 C   0  0  0  0  0  0  0  0  0  0  0  0
    6.9988    3.4185    2.4792 C   0  0  0  0  0  0  0  0  0  0  0  0
    8.5319    3.4386    2.4890 C   0  0  0  0  0  0  0  0  0  0  0  0
    9.0615    4.6150    3.3178 C   0  0  0  0  0  0  0  0  0  0  0  0
   10.5946    4.6351    3.3276 C   0  0  0  0  0  0  0  0  0  0  0  0
   11.1241    5.8115    4.1564 C   0  0  0  0  0  0  0  0  0  0  0  0
   12.6573    5.8317    4.1663 C   0  0  0  0  0  0  0  0  0  0  0  0
   13.1867    7.0081    4.9951 C   0  0  0  0  0  0  0  0  0  0  0  0
   14.7199    7.0284    5.0051 C   0  0  0  0  0  0  0  0  0  0  0  0
   15.2489    8.2047    5.8338 C   0  0  0  0  0  0  0  0  0  0  0  0
   16.7791    8.2268    5.8450 C   0  0  0  0  0  0  0  0  0  0  0  0
   17.2441    9.2932    6.6266 O   0  0  0  0  0  0  0  0  0  0  0  0
    0.4644   -1.0344   -0.6449 H   0  0  0  0  0  0  0  0  0  0  0  0
    0.4216    0.7626   -0.4847 H   0  0  0  0  0  0  0  0  0  0  0  0
    0.4258   -0.2816    0.9948 H   0  0  0  0  0  0  0  0  0  0  0  0
    2.7100   -0.0650   -1.0732 H   0  0  0  0  0  0  0  0  0  0  0  0
    2.7142   -1.1071    0.4034 H   0  0  0  0  0  0  0  0  0  0  0  0
    2.5007    0.9354    1.8465 H   0  0  0  0  0  0  0  0  0  0  0  0
    2.4964    1.9784    0.3687 H   0  0  0  0  0  0  0  0  0  0  0  0
    4.7787    1.1357   -0.2326 H   0  0  0  0  0  0  0  0  0  0  0  0
    4.7829    0.0927    1.2451 H   0  0  0  0  0  0  0  0  0  0  0  0
    4.5637    2.1320    2.6851 H   0  0  0  0  0  0  0  0  0  0  0  0
    4.5594    3.1750    1.2074 H   0  0  0  0  0  0  0  0  0  0  0  0
    6.8416    2.3322    0.6060 H   0  0  0  0  0  0  0  0  0  0  0  0
    6.8458    1.2892    2.0837 H   0  0  0  0  0  0  0  0  0  0  0  0
    6.6264    3.3284    3.5236 H   0  0  0  0  0  0  0  0  0  0  0  0
    6.6222    4.3714    2.0459 H   0  0  0  0  0  0  0  0  0  0  0  0
    8.9043    3.5287    1.4446 H   0  0  0  0  0  0  0  0  0  0  0  0
    8.9086    2.4857    2.9223 H   0  0  0  0  0  0  0  0  0  0  0  0
    8.6891    4.5249    4.3622 H   0  0  0  0  0  0  0  0  0  0  0  0
    8.6849    5.5679    2.8845 H   0  0  0  0  0  0  0  0  0  0  0  0
   10.9670    4.7252    2.2832 H   0  0  0  0  0  0  0  0  0  0  0  0
   10.9713    3.6822    3.7609 H   0  0  0  0  0  0  0  0  0  0  0  0
   10.7517    5.7214    5.2009 H   0  0  0  0  0  0  0  0  0  0  0  0
   10.7475    6.7644    3.7232 H   0  0  0  0  0  0  0  0  0  0  0  0
   13.0297    5.9218    3.1219 H   0  0  0  0  0  0  0  0  0  0  0  0
   13.0339    4.8788    4.5996 H   0  0  0  0  0  0  0  0  0  0  0  0
   12.8143    6.9180    6.0396 H   0  0  0  0  0  0  0  0  0  0  0  0
   12.8101    7.9610    4.5619 H   0  0  0  0  0  0  0  0  0  0  0  0
   15.0925    7.1187    3.9608 H   0  0  0  0  0  0  0  0  0  0  0  0
   15.0966    6.0755    5.4384 H   0  0  0  0  0  0  0  0  0  0  0  0
   14.8809    8.1176    6.8797 H   0  0  0  0  0  0  0  0  0  0  0  0
   14.8756    9.1592    5.4018 H   0  0  0  0  0  0  0  0  0  0  0  0
   17.1838    8.3032    4.8097 H   0  0  0  0  0  0  0  0  0  0  0  0
   17.1650    7.2806    6.2809 H   0  0  0  0  0  0  0  0  0  0  0  0
   17.1547   10.1123    6.0728 H   0  0  0  0  0  0  0  0  0  0  0  0
  1  2  1  0  0  0  0
  1 18  1  0  0  0  0
  1 19  1  0  0  0  0
  1 20  1  0  0  0  0
  2  3  1  0  0  0  0
  2 21  1  0  0  0  0
  2 22  1  0  0  0  0
  3  4  1  0  0  0  0
  3 23  1  0  0  0  0
  3 24  1  0  0  0  0
  4  5  1  0  0  0  0
  4 25  1  0  0  0  0
  4 26  1  0  0  0  0
  5  6  1  0  0  0  0
  5 27  1  0  0  0  0
  5 28  1  0  0  0  0
  6  7  1  0  0  0  0
  6 29  1  0  0  0  0
  6 30  1  0  0  0  0
  7  8  1  0  0  0  0
  7 31  1  0  0  0  0
  7 32  1  0  0  0  0
  8  9  1  0  0  0  0
  8 33  1  0  0  0  0
  8 34  1  0  0  0  0
  9 10  1  0  0  0  0
  9 35  1  0  0  0  0
  9 36  1  0  0  0  0
 10 11  1  0  0  0  0
 10 37  1  0  0  0  0
 10 38  1  0  0  0  0
 11 12  1  0  0  0  0
 11 39  1  0  0  0  0
 11 40  1  0  0  0  0
 12 13  1  0  0  0  0
 12 41  1  0  0  0  0
 12 42  1  0  0  0  0
 13 14  1  0  0  0  0
 13 43  1  0  0  0  0
 13 44  1  0  0  0  0
 14 15  1  0  0  0  0
 14 45  1  0  0  0  0
 14 46  1  0  0  0  0
 15 16  1  0  0  0  0
 15 47  1  0  0  0  0
 15 48  1  0  0  0  0
 16 17  1  0  0  0  0
 16 49  1  0  0  0  0
 16 50  1  0  0  0  0
 17 51  1  0  0  0  0
M  END
