  LINOLEIC ACID.mol	60-33-3
  NIST    07021513063D 1   1.00000  -855.63394
Copyright by the U.S. Sec. Commerce on behalf of U.S.A. All rights reserved.
 52 51  0  0  0  0  0  0  0  0999 V2000
    3.6543    3.4166   -0.4039 C    0  0  0  0  0  0  0  0  0  0  0  0
    3.4714    2.3846   -1.4953 C    0  0  0  0  0  0  0  0  0  0  0  0
    3.4207    2.6019   -2.6857 O    0  0  0  0  0  0  0  0  0  0  0  0
    3.9691    5.8792    0.1775 C    0  0  0  0  0  0  0  0  0  0  0  0
    3.7823    4.8443   -0.9384 C    0  0  0  0  0  0  0  0  0  0  0  0
    4.2824    8.3574    0.7641 C    0  0  0  0  0  0  0  0  0  0  0  0
    4.0950    7.3157   -0.3463 C    0  0  0  0  0  0  0  0  0  0  0  0
    4.5873   10.8374    1.3582 C    0  0  0  0  0  0  0  0  0  0  0  0
    4.3973    9.7942    0.2397 C    0  0  0  0  0  0  0  0  0  0  0  0
    6.9624   12.9849    1.5501 C    0  0  0  0  0  0  0  0  0  0  0  0
    5.6015   13.1468    0.9107 C    0  0  0  0  0  0  0  0  0  0  0  0
    4.6120   12.2492    0.8355 C    0  0  0  0  0  0  0  0  0  0  0  0
    8.0756   13.3049    0.5780 C    0  0  0  0  0  0  0  0  0  0  0  0
    9.1053   12.5304    0.2170 C    0  0  0  0  0  0  0  0  0  0  0  0
    3.3646    1.1314   -0.9808 O    0  0  0  0  0  0  0  0  0  0  0  0
    9.4480   10.1205   -0.4923 C    0  0  0  0  0  0  0  0  0  0  0  0
    9.4292   11.1319    0.6708 C    0  0  0  0  0  0  0  0  0  0  0  0
    9.8762    7.6949   -1.2129 C    0  0  0  0  0  0  0  0  0  0  0  0
    9.8553    8.7068   -0.0597 C    0  0  0  0  0  0  0  0  0  0  0  0
   10.2892    6.2864   -0.7739 C    0  0  0  0  0  0  0  0  0  0  0  0
    2.8056    3.3241    0.2875 H    0  0  0  0  0  0  0  0  0  0  0  0
    4.5380    3.1292    0.1820 H    0  0  0  0  0  0  0  0  0  0  0  0
    3.1217    5.8214    0.8771 H    0  0  0  0  0  0  0  0  0  0  0  0
    4.8644    5.6272    0.7656 H    0  0  0  0  0  0  0  0  0  0  0  0
    4.6260    4.8914   -1.6381 H    0  0  0  0  0  0  0  0  0  0  0  0
    2.8905    5.0877   -1.5294 H    0  0  0  0  0  0  0  0  0  0  0  0
    3.4387    8.2949    1.4677 H    0  0  0  0  0  0  0  0  0  0  0  0
    5.1819    8.1093    1.3473 H    0  0  0  0  0  0  0  0  0  0  0  0
    4.9415    7.3735   -1.0462 H    0  0  0  0  0  0  0  0  0  0  0  0
    3.1993    7.5668   -0.9331 H    0  0  0  0  0  0  0  0  0  0  0  0
    3.7567   10.7360    2.0744 H    0  0  0  0  0  0  0  0  0  0  0  0
    5.5008   10.6066    1.9186 H    0  0  0  0  0  0  0  0  0  0  0  0
    5.2391    9.8667   -0.4630 H    0  0  0  0  0  0  0  0  0  0  0  0
    3.4961   10.0439   -0.3391 H    0  0  0  0  0  0  0  0  0  0  0  0
    7.0323   13.6860    2.3991 H    0  0  0  0  0  0  0  0  0  0  0  0
    7.0831   11.9839    1.9710 H    0  0  0  0  0  0  0  0  0  0  0  0
    5.4303   14.1243    0.4567 H    0  0  0  0  0  0  0  0  0  0  0  0
    3.6986   12.5561    0.3223 H    0  0  0  0  0  0  0  0  0  0  0  0
    8.0064   14.2948    0.1238 H    0  0  0  0  0  0  0  0  0  0  0  0
    9.8082   12.9428   -0.5097 H    0  0  0  0  0  0  0  0  0  0  0  0
    3.2506    0.5372   -1.7463 H    0  0  0  0  0  0  0  0  0  0  0  0
    8.4530   10.0940   -0.9582 H    0  0  0  0  0  0  0  0  0  0  0  0
   10.1386   10.4768   -1.2706 H    0  0  0  0  0  0  0  0  0  0  0  0
   10.4215   11.1311    1.1487 H    0  0  0  0  0  0  0  0  0  0  0  0
    8.7230   10.7905    1.4367 H    0  0  0  0  0  0  0  0  0  0  0  0
    8.8813    7.6567   -1.6789 H    0  0  0  0  0  0  0  0  0  0  0  0
   10.5631    8.0510   -1.9938 H    0  0  0  0  0  0  0  0  0  0  0  0
   10.8506    8.7423    0.4086 H    0  0  0  0  0  0  0  0  0  0  0  0
    9.1663    8.3513    0.7213 H    0  0  0  0  0  0  0  0  0  0  0  0
   10.2911    5.5879   -1.6185 H    0  0  0  0  0  0  0  0  0  0  0  0
   11.2963    6.2858   -0.3390 H    0  0  0  0  0  0  0  0  0  0  0  0
    9.6026    5.8900   -0.0155 H    0  0  0  0  0  0  0  0  0  0  0  0
  2  1  1  0
  2  3  2  0
  4  5  1  0
  1  5  1  0
  6  7  1  0
  7  4  1  0
  8  9  1  0
  9  6  1  0
 10 11  1  0
 11 12  2  0
 12  8  1  0
 14 13  2  0
 10 13  1  0
 15  2  1  0
 16 17  1  0
 17 14  1  0
 18 19  1  0
 19 16  1  0
 20 18  1  0
  1 21  1  0
  1 22  1  0
  4 23  1  0
  4 24  1  0
  5 25  1  0
  5 26  1  0
  6 27  1  0
  6 28  1  0
  7 29  1  0
  7 30  1  0
  8 31  1  0
  8 32  1  0
  9 33  1  0
  9 34  1  0
 10 35  1  0
 10 36  1  0
 11 37  1  0
 12 38  1  0
 13 39  1  0
 14 40  1  0
 15 41  1  0
 16 42  1  0
 16 43  1  0
 17 44  1  0
 17 45  1  0
 18 46  1  0
 18 47  1  0
 19 48  1  0
 19 49  1  0
 20 50  1  0
 20 51  1  0
 20 52  1  0
M  END
