
 OpenBabel06041814023D

 57 56  0  0  0  0  0  0  0  0999 V2000
   -0.9573    0.0792    3.1388 C   0  0  0  0  0  0  0  0  0  0  0  0
   -1.7292    0.1395    4.2768 O   0  0  0  0  0  0  0  0  0  0  0  0
   -3.0886    0.1465    4.4159 C   0  0  0  0  0  0  0  0  0  0  0  0
   -4.1210    0.0863    3.2907 C   0  0  0  0  0  0  0  0  0  0  0  0
   -3.5300    0.2068    5.5523 O   0  0  0  0  0  0  0  0  0  0  0  0
   -3.6721    0.0084    1.8255 C   0  0  0  0  0  0  0  0  0  0  0  0
   -4.8862   -0.0418    0.8868 C   0  0  0  0  0  0  0  0  0  0  0  0
   -6.8884   -0.4290   -6.3778 C   0  0  0  0  0  0  0  0  0  0  0  0
   -6.0073   -0.3748   -5.3638 C   0  0  0  0  0  0  0  0  0  0  0  0
   -8.3819   -0.4177   -6.1591 C   0  0  0  0  0  0  0  0  0  0  0  0
   -6.4348   -0.2980   -3.9182 C   0  0  0  0  0  0  0  0  0  0  0  0
   -5.2211   -0.2479   -2.9836 C   0  0  0  0  0  0  0  0  0  0  0  0
   -5.6599   -0.1700   -1.5164 C   0  0  0  0  0  0  0  0  0  0  0  0
   -4.4464   -0.1198   -0.5805 C   0  0  0  0  0  0  0  0  0  0  0  0
  -15.1998   -0.5955   -9.4701 C   0  0  0  0  0  0  0  0  0  0  0  0
  -13.6840   -0.6074   -9.6991 C   0  0  0  0  0  0  0  0  0  0  0  0
  -15.9575   -0.6661  -10.7928 C   0  0  0  0  0  0  0  0  0  0  0  0
  -12.9267   -0.5364   -8.3679 C   0  0  0  0  0  0  0  0  0  0  0  0
  -11.4104   -0.5481   -8.5957 C   0  0  0  0  0  0  0  0  0  0  0  0
  -10.6537   -0.4771   -7.2640 C   0  0  0  0  0  0  0  0  0  0  0  0
   -9.1372   -0.4887   -7.4908 C   0  0  0  0  0  0  0  0  0  0  0  0
    0.1097    0.0956    3.4412 H   0  0  0  0  0  0  0  0  0  0  0  0
   -1.1219    0.9693    2.5017 H   0  0  0  0  0  0  0  0  0  0  0  0
   -1.1213   -0.8737    2.5997 H   0  0  0  0  0  0  0  0  0  0  0  0
   -4.7582    0.9919    3.3959 H   0  0  0  0  0  0  0  0  0  0  0  0
   -4.7577   -0.8034    3.4914 H   0  0  0  0  0  0  0  0  0  0  0  0
   -3.0818   -0.9153    1.6626 H   0  0  0  0  0  0  0  0  0  0  0  0
   -3.0823    0.9100    1.5654 H   0  0  0  0  0  0  0  0  0  0  0  0
   -5.5044    0.8713    1.0349 H   0  0  0  0  0  0  0  0  0  0  0  0
   -5.5038   -0.9345    1.1310 H   0  0  0  0  0  0  0  0  0  0  0  0
   -6.5022   -0.4829   -7.3926 H   0  0  0  0  0  0  0  0  0  0  0  0
   -4.9468   -0.3872   -5.6025 H   0  0  0  0  0  0  0  0  0  0  0  0
   -8.6655    0.5177   -5.6293 H   0  0  0  0  0  0  0  0  0  0  0  0
   -8.6650   -1.2917   -5.5330 H   0  0  0  0  0  0  0  0  0  0  0  0
   -7.0475   -1.1922   -3.6714 H   0  0  0  0  0  0  0  0  0  0  0  0
   -7.0480    0.6171   -3.7677 H   0  0  0  0  0  0  0  0  0  0  0  0
   -4.6051    0.6452   -3.2307 H   0  0  0  0  0  0  0  0  0  0  0  0
   -4.6046   -1.1619   -3.1345 H   0  0  0  0  0  0  0  0  0  0  0  0
   -6.2764   -1.0626   -1.2700 H   0  0  0  0  0  0  0  0  0  0  0  0
   -6.2769    0.7435   -1.3661 H   0  0  0  0  0  0  0  0  0  0  0  0
   -3.8294   -1.0332   -0.7308 H   0  0  0  0  0  0  0  0  0  0  0  0
   -3.8299    0.7728   -0.8269 H   0  0  0  0  0  0  0  0  0  0  0  0
  -15.4905    0.3375   -8.9397 H   0  0  0  0  0  0  0  0  0  0  0  0
  -15.4900   -1.4672   -8.8437 H   0  0  0  0  0  0  0  0  0  0  0  0
  -13.4014    0.2649  -10.3292 H   0  0  0  0  0  0  0  0  0  0  0  0
  -13.4010   -1.5414  -10.2332 H   0  0  0  0  0  0  0  0  0  0  0  0
  -15.7025    0.2068  -11.4309 H   0  0  0  0  0  0  0  0  0  0  0  0
  -17.0504   -0.6559  -10.5967 H   0  0  0  0  0  0  0  0  0  0  0  0
  -15.7021   -1.6016  -11.3347 H   0  0  0  0  0  0  0  0  0  0  0  0
  -13.2097   -1.4085   -7.7380 H   0  0  0  0  0  0  0  0  0  0  0  0
  -13.2101    0.3976   -7.8340 H   0  0  0  0  0  0  0  0  0  0  0  0
  -11.1272    0.3241   -9.2255 H   0  0  0  0  0  0  0  0  0  0  0  0
  -11.1267   -1.4821   -9.1295 H   0  0  0  0  0  0  0  0  0  0  0  0
  -10.9371   -1.3492   -6.6342 H   0  0  0  0  0  0  0  0  0  0  0  0
  -10.9376    0.4569   -6.7303 H   0  0  0  0  0  0  0  0  0  0  0  0
   -8.8528   -1.4231   -8.0238 H   0  0  0  0  0  0  0  0  0  0  0  0
   -8.8532    0.3839   -8.1200 H   0  0  0  0  0  0  0  0  0  0  0  0
  1  2  1  0  0  0  0
  1 22  1  0  0  0  0
  1 23  1  0  0  0  0
  1 24  1  0  0  0  0
  2  3  1  0  0  0  0
  3  4  1  0  0  0  0
  3  5  2  0  0  0  0
  4  6  1  0  0  0  0
  4 25  1  0  0  0  0
  4 26  1  0  0  0  0
  6  7  1  0  0  0  0
  6 27  1  0  0  0  0
  6 28  1  0  0  0  0
  7 14  1  0  0  0  0
  7 29  1  0  0  0  0
  7 30  1  0  0  0  0
  8  9  2  0  0  0  0
  8 10  1  0  0  0  0
  8 31  1  0  0  0  0
  9 11  1  0  0  0  0
  9 32  1  0  0  0  0
 10 21  1  0  0  0  0
 10 33  1  0  0  0  0
 10 34  1  0  0  0  0
 11 12  1  0  0  0  0
 11 35  1  0  0  0  0
 11 36  1  0  0  0  0
 12 13  1  0  0  0  0
 12 37  1  0  0  0  0
 12 38  1  0  0  0  0
 13 14  1  0  0  0  0
 13 39  1  0  0  0  0
 13 40  1  0  0  0  0
 14 41  1  0  0  0  0
 14 42  1  0  0  0  0
 15 16  1  0  0  0  0
 15 17  1  0  0  0  0
 15 43  1  0  0  0  0
 15 44  1  0  0  0  0
 16 18  1  0  0  0  0
 16 45  1  0  0  0  0
 16 46  1  0  0  0  0
 17 47  1  0  0  0  0
 17 48  1  0  0  0  0
 17 49  1  0  0  0  0
 18 19  1  0  0  0  0
 18 50  1  0  0  0  0
 18 51  1  0  0  0  0
 19 20  1  0  0  0  0
 19 52  1  0  0  0  0
 19 53  1  0  0  0  0
 20 21  1  0  0  0  0
 20 54  1  0  0  0  0
 20 55  1  0  0  0  0
 21 56  1  0  0  0  0
 21 57  1  0  0  0  0
M  END
