
 OpenBabel06041814033D

 53 52  0  0  0  0  0  0  0  0999 V2000
    1.7183    0.2218   -0.6125 C   0  0  0  0  0  0  0  0  0  0  0  0
    2.9782    0.0453   -0.0854 O   0  0  0  0  0  0  0  0  0  0  0  0
    3.3637   -0.3712    1.1588 C   0  0  0  0  0  0  0  0  0  0  0  0
    2.4445   -0.7590    2.3173 C   0  0  0  0  0  0  0  0  0  0  0  0
    4.5631   -0.4428    1.3729 O   0  0  0  0  0  0  0  0  0  0  0  0
    0.9238   -0.6998    2.1407 C   0  0  0  0  0  0  0  0  0  0  0  0
    0.1940   -1.1285    3.4212 C   0  0  0  0  0  0  0  0  0  0  0  0
   -1.3234   -1.0591    3.2138 C   0  0  0  0  0  0  0  0  0  0  0  0
   -2.0893   -1.4802    4.4720 C   0  0  0  0  0  0  0  0  0  0  0  0
   -3.6003   -1.3977    4.2254 C   0  0  0  0  0  0  0  0  0  0  0  0
   -4.3955   -1.8132    5.4667 C   0  0  0  0  0  0  0  0  0  0  0  0
   -5.9025   -1.7230    5.1973 C   0  0  0  0  0  0  0  0  0  0  0  0
   -6.7093   -2.1364    6.4320 C   0  0  0  0  0  0  0  0  0  0  0  0
   -8.2154   -2.0453    6.1598 C   0  0  0  0  0  0  0  0  0  0  0  0
   -9.0185   -2.4596    7.3975 C   0  0  0  0  0  0  0  0  0  0  0  0
  -10.5262   -2.3717    7.1351 C   0  0  0  0  0  0  0  0  0  0  0  0
  -11.3197   -2.7881    8.3789 C   0  0  0  0  0  0  0  0  0  0  0  0
  -12.8288   -2.7034    8.1260 C   0  0  0  0  0  0  0  0  0  0  0  0
  -13.6163   -3.1184    9.3654 C   0  0  0  0  0  0  0  0  0  0  0  0
    1.8244    0.5722   -1.6594 H   0  0  0  0  0  0  0  0  0  0  0  0
    1.1674    1.0129   -0.0683 H   0  0  0  0  0  0  0  0  0  0  0  0
    1.1674   -0.7375   -0.6542 H   0  0  0  0  0  0  0  0  0  0  0  0
    2.7081   -0.0968    3.1711 H   0  0  0  0  0  0  0  0  0  0  0  0
    2.7081   -1.8018    2.6003 H   0  0  0  0  0  0  0  0  0  0  0  0
    0.6167   -1.3942    1.3335 H   0  0  0  0  0  0  0  0  0  0  0  0
    0.6167    0.3405    1.9141 H   0  0  0  0  0  0  0  0  0  0  0  0
    0.4835   -0.4548    4.2579 H   0  0  0  0  0  0  0  0  0  0  0  0
    0.4835   -2.1702    3.6837 H   0  0  0  0  0  0  0  0  0  0  0  0
   -1.6069   -1.7314    2.3738 H   0  0  0  0  0  0  0  0  0  0  0  0
   -1.6069   -0.0165    2.9478 H   0  0  0  0  0  0  0  0  0  0  0  0
   -1.8142   -0.8084    5.3148 H   0  0  0  0  0  0  0  0  0  0  0  0
   -1.8142   -2.5241    4.7405 H   0  0  0  0  0  0  0  0  0  0  0  0
   -3.8693   -2.0680    3.3791 H   0  0  0  0  0  0  0  0  0  0  0  0
   -3.8693   -0.3530    3.9532 H   0  0  0  0  0  0  0  0  0  0  0  0
   -4.1315   -1.1431    6.3144 H   0  0  0  0  0  0  0  0  0  0  0  0
   -4.1315   -2.8587    5.7401 H   0  0  0  0  0  0  0  0  0  0  0  0
   -6.1641   -2.3923    4.3479 H   0  0  0  0  0  0  0  0  0  0  0  0
   -6.1641   -0.6773    4.9220 H   0  0  0  0  0  0  0  0  0  0  0  0
   -6.4483   -1.4668    7.2812 H   0  0  0  0  0  0  0  0  0  0  0  0
   -6.4483   -3.1823    6.7069 H   0  0  0  0  0  0  0  0  0  0  0  0
   -8.4771   -2.7147    5.3106 H   0  0  0  0  0  0  0  0  0  0  0  0
   -8.4771   -0.9995    5.8848 H   0  0  0  0  0  0  0  0  0  0  0  0
   -8.7547   -1.7897    8.2456 H   0  0  0  0  0  0  0  0  0  0  0  0
   -8.7547   -3.5051    7.6714 H   0  0  0  0  0  0  0  0  0  0  0  0
  -10.7918   -3.0418    6.2876 H   0  0  0  0  0  0  0  0  0  0  0  0
  -10.7918   -1.3265    6.8618 H   0  0  0  0  0  0  0  0  0  0  0  0
  -11.0520   -2.1178    9.2256 H   0  0  0  0  0  0  0  0  0  0  0  0
  -11.0520   -3.8331    8.6514 H   0  0  0  0  0  0  0  0  0  0  0  0
  -13.1051   -3.3744    7.2835 H   0  0  0  0  0  0  0  0  0  0  0  0
  -13.1051   -1.6605    7.8573 H   0  0  0  0  0  0  0  0  0  0  0  0
  -13.3739   -4.1662    9.6437 H   0  0  0  0  0  0  0  0  0  0  0  0
  -14.7044   -3.0484    9.1565 H   0  0  0  0  0  0  0  0  0  0  0  0
  -13.3739   -2.4492   10.2185 H   0  0  0  0  0  0  0  0  0  0  0  0
  1  2  1  0  0  0  0
  1 20  1  0  0  0  0
  1 21  1  0  0  0  0
  1 22  1  0  0  0  0
  2  3  1  0  0  0  0
  3  4  1  0  0  0  0
  3  5  2  0  0  0  0
  4  6  1  0  0  0  0
  4 23  1  0  0  0  0
  4 24  1  0  0  0  0
  6  7  1  0  0  0  0
  6 25  1  0  0  0  0
  6 26  1  0  0  0  0
  7  8  1  0  0  0  0
  7 27  1  0  0  0  0
  7 28  1  0  0  0  0
  8  9  1  0  0  0  0
  8 29  1  0  0  0  0
  8 30  1  0  0  0  0
  9 10  1  0  0  0  0
  9 31  1  0  0  0  0
  9 32  1  0  0  0  0
 10 11  1  0  0  0  0
 10 33  1  0  0  0  0
 10 34  1  0  0  0  0
 11 12  1  0  0  0  0
 11 35  1  0  0  0  0
 11 36  1  0  0  0  0
 12 13  1  0  0  0  0
 12 37  1  0  0  0  0
 12 38  1  0  0  0  0
 13 14  1  0  0  0  0
 13 39  1  0  0  0  0
 13 40  1  0  0  0  0
 14 15  1  0  0  0  0
 14 41  1  0  0  0  0
 14 42  1  0  0  0  0
 15 16  1  0  0  0  0
 15 43  1  0  0  0  0
 15 44  1  0  0  0  0
 16 17  1  0  0  0  0
 16 45  1  0  0  0  0
 16 46  1  0  0  0  0
 17 18  1  0  0  0  0
 17 47  1  0  0  0  0
 17 48  1  0  0  0  0
 18 19  1  0  0  0  0
 18 49  1  0  0  0  0
 18 50  1  0  0  0  0
 19 51  1  0  0  0  0
 19 52  1  0  0  0  0
 19 53  1  0  0  0  0
M  END
