  N-CAPRIC ACID.mol	334-48-5
  NIST    07011503433D 1   1.00000  -543.58873
Copyright by the U.S. Sec. Commerce on behalf of U.S.A. All rights reserved.
 32 31  0  0  0  0  0  0  0  0999 V2000
    4.1171    2.1482    1.2976 C    0  0  0  0  0  0  0  0  0  0  0  0
    5.2184    1.1063    1.0320 C    0  0  0  0  0  0  0  0  0  0  0  0
    3.2470    1.8485    2.5259 C    0  0  0  0  0  0  0  0  0  0  0  0
    6.2958    0.9678    2.1226 C    0  0  0  0  0  0  0  0  0  0  0  0
    2.1140    2.8801    2.7001 C    0  0  0  0  0  0  0  0  0  0  0  0
    7.1439    2.2269    2.3521 C    0  0  0  0  0  0  0  0  0  0  0  0
    1.2735    2.6162    3.9286 C    0  0  0  0  0  0  0  0  0  0  0  0
    8.2594    2.0236    3.3855 C    0  0  0  0  0  0  0  0  0  0  0  0
    0.5564    1.4663    3.8096 O    0  0  0  0  0  0  0  0  0  0  0  0
    1.2275    3.3040    4.9244 O    0  0  0  0  0  0  0  0  0  0  0  0
    9.1159    3.2748    3.6206 C    0  0  0  0  0  0  0  0  0  0  0  0
   10.2250    3.0620    4.6559 C    0  0  0  0  0  0  0  0  0  0  0  0
    3.4691    2.2001    0.4111 H    0  0  0  0  0  0  0  0  0  0  0  0
    4.5625    3.1468    1.4029 H    0  0  0  0  0  0  0  0  0  0  0  0
    4.7446    0.1263    0.8785 H    0  0  0  0  0  0  0  0  0  0  0  0
    5.7107    1.3569    0.0816 H    0  0  0  0  0  0  0  0  0  0  0  0
    3.8632    1.8433    3.4339 H    0  0  0  0  0  0  0  0  0  0  0  0
    2.8098    0.8462    2.4367 H    0  0  0  0  0  0  0  0  0  0  0  0
    6.9623    0.1403    1.8411 H    0  0  0  0  0  0  0  0  0  0  0  0
    5.8322    0.6645    3.0719 H    0  0  0  0  0  0  0  0  0  0  0  0
    2.5227    3.8896    2.7987 H    0  0  0  0  0  0  0  0  0  0  0  0
    1.4612    2.8577    1.8184 H    0  0  0  0  0  0  0  0  0  0  0  0
    6.5029    3.0578    2.6792 H    0  0  0  0  0  0  0  0  0  0  0  0
    7.5874    2.5442    1.3960 H    0  0  0  0  0  0  0  0  0  0  0  0
    8.9086    1.1962    3.0620 H    0  0  0  0  0  0  0  0  0  0  0  0
    7.8155    1.7040    4.3402 H    0  0  0  0  0  0  0  0  0  0  0  0
    0.0686    1.3686    4.6490 H    0  0  0  0  0  0  0  0  0  0  0  0
    9.5612    3.5928    2.6671 H    0  0  0  0  0  0  0  0  0  0  0  0
    8.4676    4.1019    3.9434 H    0  0  0  0  0  0  0  0  0  0  0  0
   10.9102    2.2639    4.3445 H    0  0  0  0  0  0  0  0  0  0  0  0
    9.8083    2.7777    5.6300 H    0  0  0  0  0  0  0  0  0  0  0  0
   10.8181    3.9723    4.8003 H    0  0  0  0  0  0  0  0  0  0  0  0
  1  2  1  0  0  0  0
  1  3  1  0  0  0  0
  1 13  1  0  0  0  0
  1 14  1  0  0  0  0
  2  4  1  0  0  0  0
  2 15  1  0  0  0  0
  2 16  1  0  0  0  0
  3  5  1  0  0  0  0
  3 17  1  0  0  0  0
  3 18  1  0  0  0  0
  4  6  1  0  0  0  0
  4 19  1  0  0  0  0
  4 20  1  0  0  0  0
  5  7  1  0  0  0  0
  5 21  1  0  0  0  0
  5 22  1  0  0  0  0
  6  8  1  0  0  0  0
  6 23  1  0  0  0  0
  6 24  1  0  0  0  0
  7  9  1  0  0  0  0
  7 10  2  0  0  0  0
  8 11  1  0  0  0  0
  8 25  1  0  0  0  0
  8 26  1  0  0  0  0
  9 27  1  0  0  0  0
 11 12  1  0  0  0  0
 11 28  1  0  0  0  0
 11 29  1  0  0  0  0
 12 30  1  0  0  0  0
 12 31  1  0  0  0  0
 12 32  1  0  0  0  0
M  END
