
 OpenBabel09281909233D

 38 37  0  0  0  0  0  0  0  0999 V2000
    3.5325    1.9205    6.8387 C   0  0  0  0  0  0  0  0  0  0  0  0
    2.1488    1.4059    7.2531 C   0  0  0  0  0  0  0  0  0  0  0  0
    2.2038    0.7238    8.6253 C   0  0  0  0  0  0  0  0  0  0  0  0
    3.4774    2.6034    5.4669 C   0  0  0  0  0  0  0  0  0  0  0  0
    0.8200    0.2098    9.0401 C   0  0  0  0  0  0  0  0  0  0  0  0
    4.8610    3.1186    5.0527 C   0  0  0  0  0  0  0  0  0  0  0  0
    0.8747   -0.4718   10.4125 C   0  0  0  0  0  0  0  0  0  0  0  0
    4.8058    3.8021    3.6813 C   0  0  0  0  0  0  0  0  0  0  0  0
   -0.5091   -0.9850   10.8268 C   0  0  0  0  0  0  0  0  0  0  0  0
    6.1893    4.3173    3.2681 C   0  0  0  0  0  0  0  0  0  0  0  0
   -0.4589   -1.6638   12.1925 C   0  0  0  0  0  0  0  0  0  0  0  0
    6.1385    4.9986    1.9036 C   0  0  0  0  0  0  0  0  0  0  0  0
    4.2437    1.0662    6.7949 H   0  0  0  0  0  0  0  0  0  0  0  0
    3.8950    2.6494    7.5969 H   0  0  0  0  0  0  0  0  0  0  0  0
    1.7863    0.6768    6.4951 H   0  0  0  0  0  0  0  0  0  0  0  0
    1.4377    2.2603    7.2966 H   0  0  0  0  0  0  0  0  0  0  0  0
    2.5665    1.4530    9.3831 H   0  0  0  0  0  0  0  0  0  0  0  0
    2.9148   -0.1308    8.5820 H   0  0  0  0  0  0  0  0  0  0  0  0
    2.7660    3.4576    5.5108 H   0  0  0  0  0  0  0  0  0  0  0  0
    3.1151    1.8746    4.7085 H   0  0  0  0  0  0  0  0  0  0  0  0
    0.4572   -0.5196    8.2824 H   0  0  0  0  0  0  0  0  0  0  0  0
    0.1090    1.0644    9.0832 H   0  0  0  0  0  0  0  0  0  0  0  0
    5.5724    2.2645    5.0086 H   0  0  0  0  0  0  0  0  0  0  0  0
    5.2232    3.8473    5.8113 H   0  0  0  0  0  0  0  0  0  0  0  0
    1.2373    0.2576   11.1703 H   0  0  0  0  0  0  0  0  0  0  0  0
    1.5854   -1.3266   10.3697 H   0  0  0  0  0  0  0  0  0  0  0  0
    4.0945    4.6563    3.7253 H   0  0  0  0  0  0  0  0  0  0  0  0
    4.4439    3.0736    2.9224 H   0  0  0  0  0  0  0  0  0  0  0  0
   -1.2241   -0.1348   10.8751 H   0  0  0  0  0  0  0  0  0  0  0  0
   -0.8764   -1.7178   10.0754 H   0  0  0  0  0  0  0  0  0  0  0  0
    6.9050    3.4678    3.2183 H   0  0  0  0  0  0  0  0  0  0  0  0
    6.5558    5.0490    4.0208 H   0  0  0  0  0  0  0  0  0  0  0  0
    0.2331   -2.5325   12.1667 H   0  0  0  0  0  0  0  0  0  0  0  0
   -1.4726   -2.0248   12.4664 H   0  0  0  0  0  0  0  0  0  0  0  0
   -0.1154   -0.9463   12.9679 H   0  0  0  0  0  0  0  0  0  0  0  0
    5.7957    4.2823    1.1268 H   0  0  0  0  0  0  0  0  0  0  0  0
    7.1519    5.3610    1.6305 H   0  0  0  0  0  0  0  0  0  0  0  0
    5.4458    5.8667    1.9310 H   0  0  0  0  0  0  0  0  0  0  0  0
  1  2  1  0  0  0  0
  1  4  1  0  0  0  0
  1 13  1  0  0  0  0
  1 14  1  0  0  0  0
  2  3  1  0  0  0  0
  2 15  1  0  0  0  0
  2 16  1  0  0  0  0
  3  5  1  0  0  0  0
  3 17  1  0  0  0  0
  3 18  1  0  0  0  0
  4  6  1  0  0  0  0
  4 19  1  0  0  0  0
  4 20  1  0  0  0  0
  5  7  1  0  0  0  0
  5 21  1  0  0  0  0
  5 22  1  0  0  0  0
  6  8  1  0  0  0  0
  6 23  1  0  0  0  0
  6 24  1  0  0  0  0
  7  9  1  0  0  0  0
  7 25  1  0  0  0  0
  7 26  1  0  0  0  0
  8 10  1  0  0  0  0
  8 27  1  0  0  0  0
  8 28  1  0  0  0  0
  9 11  1  0  0  0  0
  9 29  1  0  0  0  0
  9 30  1  0  0  0  0
 10 12  1  0  0  0  0
 10 31  1  0  0  0  0
 10 32  1  0  0  0  0
 11 33  1  0  0  0  0
 11 34  1  0  0  0  0
 11 35  1  0  0  0  0
 12 36  1  0  0  0  0
 12 37  1  0  0  0  0
 12 38  1  0  0  0  0
M  END
