
 OpenBabel11291914023D

 48 48  0  0  0  0  0  0  0  0999 V2000
    4.9334    0.8447    3.1797 C   0  0  0  0  0  0  0  0  0  0  0  0
    4.7267    2.3658    3.1555 C   0  0  0  0  0  0  0  0  0  0  0  0
    3.2668    2.7257    3.0211 C   0  0  0  0  0  0  0  0  0  0  0  0
    6.4190    0.4945    3.3273 C   0  0  0  0  0  0  0  0  0  0  0  0
    2.6157    3.4422    4.0409 C   0  0  0  0  0  0  0  0  0  0  0  0
    2.5449    2.3573    1.8714 C   0  0  0  0  0  0  0  0  0  0  0  0
    6.6260   -1.0245    3.3576 C   0  0  0  0  0  0  0  0  0  0  0  0
    1.2642    3.7779    3.9134 C   0  0  0  0  0  0  0  0  0  0  0  0
    1.1937    2.6960    1.7494 C   0  0  0  0  0  0  0  0  0  0  0  0
    8.1115   -1.3747    3.5050 C   0  0  0  0  0  0  0  0  0  0  0  0
    0.5539    3.4047    2.7695 C   0  0  0  0  0  0  0  0  0  0  0  0
    8.3182   -2.8937    3.5353 C   0  0  0  0  0  0  0  0  0  0  0  0
    9.8037   -3.2441    3.6828 C   0  0  0  0  0  0  0  0  0  0  0  0
   10.0102   -4.7632    3.7132 C   0  0  0  0  0  0  0  0  0  0  0  0
   11.4956   -5.1138    3.8607 C   0  0  0  0  0  0  0  0  0  0  0  0
   11.7021   -6.6328    3.8911 C   0  0  0  0  0  0  0  0  0  0  0  0
   13.1873   -6.9828    4.0386 C   0  0  0  0  0  0  0  0  0  0  0  0
   13.3969   -8.4939    4.0693 C   0  0  0  0  0  0  0  0  0  0  0  0
    4.3676    0.4153    4.0360 H   0  0  0  0  0  0  0  0  0  0  0  0
    4.5497    0.3959    2.2381 H   0  0  0  0  0  0  0  0  0  0  0  0
    5.2865    2.8137    2.3058 H   0  0  0  0  0  0  0  0  0  0  0  0
    5.1391    2.7894    4.0980 H   0  0  0  0  0  0  0  0  0  0  0  0
    6.9838    0.9250    2.4710 H   0  0  0  0  0  0  0  0  0  0  0  0
    6.8086    0.9362    4.2712 H   0  0  0  0  0  0  0  0  0  0  0  0
    3.1530    3.7386    4.9332 H   0  0  0  0  0  0  0  0  0  0  0  0
    3.0287    1.8120    1.0711 H   0  0  0  0  0  0  0  0  0  0  0  0
    6.0610   -1.4547    4.2139 H   0  0  0  0  0  0  0  0  0  0  0  0
    6.2369   -1.4667    2.4138 H   0  0  0  0  0  0  0  0  0  0  0  0
    0.7674    4.3281    4.7020 H   0  0  0  0  0  0  0  0  0  0  0  0
    0.6428    2.4098    0.8628 H   0  0  0  0  0  0  0  0  0  0  0  0
    8.5007   -0.9326    4.4488 H   0  0  0  0  0  0  0  0  0  0  0  0
    8.6766   -0.9446    2.6487 H   0  0  0  0  0  0  0  0  0  0  0  0
   -0.4920    3.6661    2.6728 H   0  0  0  0  0  0  0  0  0  0  0  0
    7.7531   -3.3238    4.3917 H   0  0  0  0  0  0  0  0  0  0  0  0
    7.9290   -3.3358    2.5916 H   0  0  0  0  0  0  0  0  0  0  0  0
   10.1929   -2.8020    4.6266 H   0  0  0  0  0  0  0  0  0  0  0  0
   10.3688   -2.8141    2.8264 H   0  0  0  0  0  0  0  0  0  0  0  0
    9.6209   -5.2052    2.7694 H   0  0  0  0  0  0  0  0  0  0  0  0
    9.4450   -5.1932    4.5695 H   0  0  0  0  0  0  0  0  0  0  0  0
   12.0608   -4.6839    3.0043 H   0  0  0  0  0  0  0  0  0  0  0  0
   11.8850   -4.6718    4.8044 H   0  0  0  0  0  0  0  0  0  0  0  0
   11.3130   -7.0751    2.9473 H   0  0  0  0  0  0  0  0  0  0  0  0
   11.1371   -7.0630    4.7475 H   0  0  0  0  0  0  0  0  0  0  0  0
   13.7579   -6.5589    3.1835 H   0  0  0  0  0  0  0  0  0  0  0  0
   13.5821   -6.5468    4.9822 H   0  0  0  0  0  0  0  0  0  0  0  0
   13.0304   -8.9538    3.1268 H   0  0  0  0  0  0  0  0  0  0  0  0
   12.8543   -8.9416    4.9291 H   0  0  0  0  0  0  0  0  0  0  0  0
   14.4792   -8.7176    4.1765 H   0  0  0  0  0  0  0  0  0  0  0  0
  1  2  1  0  0  0  0
  1  4  1  0  0  0  0
  1 19  1  0  0  0  0
  1 20  1  0  0  0  0
  2  3  1  0  0  0  0
  2 21  1  0  0  0  0
  2 22  1  0  0  0  0
  3  6  1  0  0  0  0
  4  7  1  0  0  0  0
  4 23  1  0  0  0  0
  4 24  1  0  0  0  0
  5  3  2  0  0  0  0
  5 25  1  0  0  0  0
  6  9  2  0  0  0  0
  6 26  1  0  0  0  0
  7 10  1  0  0  0  0
  7 27  1  0  0  0  0
  7 28  1  0  0  0  0
  8  5  1  0  0  0  0
  8 29  1  0  0  0  0
  9 11  1  0  0  0  0
  9 30  1  0  0  0  0
 10 12  1  0  0  0  0
 10 31  1  0  0  0  0
 10 32  1  0  0  0  0
 11  8  2  0  0  0  0
 11 33  1  0  0  0  0
 12 13  1  0  0  0  0
 12 34  1  0  0  0  0
 12 35  1  0  0  0  0
 13 14  1  0  0  0  0
 13 36  1  0  0  0  0
 13 37  1  0  0  0  0
 14 15  1  0  0  0  0
 14 38  1  0  0  0  0
 14 39  1  0  0  0  0
 15 16  1  0  0  0  0
 15 40  1  0  0  0  0
 15 41  1  0  0  0  0
 16 17  1  0  0  0  0
 16 42  1  0  0  0  0
 16 43  1  0  0  0  0
 17 18  1  0  0  0  0
 17 44  1  0  0  0  0
 17 45  1  0  0  0  0
 18 46  1  0  0  0  0
 18 47  1  0  0  0  0
 18 48  1  0  0  0  0
M  END
