
 OpenBabel09281910593D

 68 67  0  0  0  0  0  0  0  0999 V2000
   10.6403    2.7705   10.3592 C   0  0  0  0  0  0  0  0  0  0  0  0
    9.8793    2.5584   11.6733 C   0  0  0  0  0  0  0  0  0  0  0  0
    8.3789    2.3741   11.4167 C   0  0  0  0  0  0  0  0  0  0  0  0
   12.1408    2.9545   10.6158 C   0  0  0  0  0  0  0  0  0  0  0  0
    7.6179    2.1617   12.7308 C   0  0  0  0  0  0  0  0  0  0  0  0
   12.9018    3.1663    9.3016 C   0  0  0  0  0  0  0  0  0  0  0  0
    6.1176    1.9771   12.4741 C   0  0  0  0  0  0  0  0  0  0  0  0
   14.4023    3.3501    9.5582 C   0  0  0  0  0  0  0  0  0  0  0  0
    5.3566    1.7645   13.7882 C   0  0  0  0  0  0  0  0  0  0  0  0
   15.1634    3.5617    8.2440 C   0  0  0  0  0  0  0  0  0  0  0  0
    3.8563    1.5798   13.5315 C   0  0  0  0  0  0  0  0  0  0  0  0
   16.6639    3.7453    8.5006 C   0  0  0  0  0  0  0  0  0  0  0  0
    3.0953    1.3670   14.8456 C   0  0  0  0  0  0  0  0  0  0  0  0
   17.4251    3.9566    7.1864 C   0  0  0  0  0  0  0  0  0  0  0  0
    1.5949    1.1820   14.5890 C   0  0  0  0  0  0  0  0  0  0  0  0
   18.9256    4.1401    7.4429 C   0  0  0  0  0  0  0  0  0  0  0  0
    0.8340    0.9691   15.9030 C   0  0  0  0  0  0  0  0  0  0  0  0
   19.6868    4.3514    6.1288 C   0  0  0  0  0  0  0  0  0  0  0  0
   -0.6659    0.7843   15.6457 C   0  0  0  0  0  0  0  0  0  0  0  0
   21.1869    4.5346    6.3859 C   0  0  0  0  0  0  0  0  0  0  0  0
   -1.4268    0.5720   16.9512 C   0  0  0  0  0  0  0  0  0  0  0  0
   21.9481    4.7452    5.0803 C   0  0  0  0  0  0  0  0  0  0  0  0
   10.2423    3.6740    9.8464 H   0  0  0  0  0  0  0  0  0  0  0  0
   10.4866    1.8878    9.6997 H   0  0  0  0  0  0  0  0  0  0  0  0
   10.0330    3.4411   12.3328 H   0  0  0  0  0  0  0  0  0  0  0  0
   10.2775    1.6550   12.1860 H   0  0  0  0  0  0  0  0  0  0  0  0
    8.2253    1.4915   10.7571 H   0  0  0  0  0  0  0  0  0  0  0  0
    7.9807    3.2775   10.9040 H   0  0  0  0  0  0  0  0  0  0  0  0
   12.5387    2.0511   11.1286 H   0  0  0  0  0  0  0  0  0  0  0  0
   12.2947    3.8372   11.2752 H   0  0  0  0  0  0  0  0  0  0  0  0
    8.0162    1.2583   13.2434 H   0  0  0  0  0  0  0  0  0  0  0  0
    7.7714    3.0443   13.3904 H   0  0  0  0  0  0  0  0  0  0  0  0
   12.7479    2.2837    8.6422 H   0  0  0  0  0  0  0  0  0  0  0  0
   12.5040    4.0698    8.7888 H   0  0  0  0  0  0  0  0  0  0  0  0
    5.7192    2.8806   11.9615 H   0  0  0  0  0  0  0  0  0  0  0  0
    5.9641    1.0946   11.8145 H   0  0  0  0  0  0  0  0  0  0  0  0
   14.8001    2.4466   10.0711 H   0  0  0  0  0  0  0  0  0  0  0  0
   14.5564    4.2328   10.2175 H   0  0  0  0  0  0  0  0  0  0  0  0
    5.7551    0.8611   14.3008 H   0  0  0  0  0  0  0  0  0  0  0  0
    5.5100    2.6471   14.4479 H   0  0  0  0  0  0  0  0  0  0  0  0
   15.0093    2.6790    7.5847 H   0  0  0  0  0  0  0  0  0  0  0  0
   14.7657    4.4652    7.7311 H   0  0  0  0  0  0  0  0  0  0  0  0
    3.4578    2.4832   13.0190 H   0  0  0  0  0  0  0  0  0  0  0  0
    3.7029    0.6972   12.8718 H   0  0  0  0  0  0  0  0  0  0  0  0
   17.0616    2.8417    9.0135 H   0  0  0  0  0  0  0  0  0  0  0  0
   16.8181    4.6280    9.1599 H   0  0  0  0  0  0  0  0  0  0  0  0
    3.2486    2.2495   15.5053 H   0  0  0  0  0  0  0  0  0  0  0  0
    3.4939    0.4636   15.3581 H   0  0  0  0  0  0  0  0  0  0  0  0
   17.2709    3.0739    6.5271 H   0  0  0  0  0  0  0  0  0  0  0  0
   17.0274    4.8602    6.6734 H   0  0  0  0  0  0  0  0  0  0  0  0
    1.4417    0.2995   13.9292 H   0  0  0  0  0  0  0  0  0  0  0  0
    1.1963    2.0854   14.0765 H   0  0  0  0  0  0  0  0  0  0  0  0
   19.0799    5.0228    8.1021 H   0  0  0  0  0  0  0  0  0  0  0  0
   19.3233    3.2365    7.9559 H   0  0  0  0  0  0  0  0  0  0  0  0
    1.2323    0.0657   16.4156 H   0  0  0  0  0  0  0  0  0  0  0  0
    0.9869    1.8517   16.5628 H   0  0  0  0  0  0  0  0  0  0  0  0
   19.5328    3.4686    5.4694 H   0  0  0  0  0  0  0  0  0  0  0  0
   19.2895    5.2550    5.6156 H   0  0  0  0  0  0  0  0  0  0  0  0
   -0.8265   -0.0989   14.9894 H   0  0  0  0  0  0  0  0  0  0  0  0
   -1.0717    1.6857   15.1366 H   0  0  0  0  0  0  0  0  0  0  0  0
   21.5917    3.6331    6.8956 H   0  0  0  0  0  0  0  0  0  0  0  0
   21.3486    5.4180    7.0417 H   0  0  0  0  0  0  0  0  0  0  0  0
   -1.0557   -0.3369   17.4711 H   0  0  0  0  0  0  0  0  0  0  0  0
   -1.3014    1.4512   17.6185 H   0  0  0  0  0  0  0  0  0  0  0  0
   -2.5081    0.4413   16.7349 H   0  0  0  0  0  0  0  0  0  0  0  0
   21.8217    3.8657    4.4135 H   0  0  0  0  0  0  0  0  0  0  0  0
   23.0295    4.8747    5.2965 H   0  0  0  0  0  0  0  0  0  0  0  0
   21.5781    5.6542    4.5598 H   0  0  0  0  0  0  0  0  0  0  0  0
  1  2  1  0  0  0  0
  1  4  1  0  0  0  0
  1 23  1  0  0  0  0
  1 24  1  0  0  0  0
  2  3  1  0  0  0  0
  2 25  1  0  0  0  0
  2 26  1  0  0  0  0
  3  5  1  0  0  0  0
  3 27  1  0  0  0  0
  3 28  1  0  0  0  0
  4  6  1  0  0  0  0
  4 29  1  0  0  0  0
  4 30  1  0  0  0  0
  5  7  1  0  0  0  0
  5 31  1  0  0  0  0
  5 32  1  0  0  0  0
  6  8  1  0  0  0  0
  6 33  1  0  0  0  0
  6 34  1  0  0  0  0
  7  9  1  0  0  0  0
  7 35  1  0  0  0  0
  7 36  1  0  0  0  0
  8 10  1  0  0  0  0
  8 37  1  0  0  0  0
  8 38  1  0  0  0  0
  9 11  1  0  0  0  0
  9 39  1  0  0  0  0
  9 40  1  0  0  0  0
 10 12  1  0  0  0  0
 10 41  1  0  0  0  0
 10 42  1  0  0  0  0
 11 13  1  0  0  0  0
 11 43  1  0  0  0  0
 11 44  1  0  0  0  0
 12 14  1  0  0  0  0
 12 45  1  0  0  0  0
 12 46  1  0  0  0  0
 13 15  1  0  0  0  0
 13 47  1  0  0  0  0
 13 48  1  0  0  0  0
 14 16  1  0  0  0  0
 14 49  1  0  0  0  0
 14 50  1  0  0  0  0
 15 17  1  0  0  0  0
 15 51  1  0  0  0  0
 15 52  1  0  0  0  0
 16 18  1  0  0  0  0
 16 53  1  0  0  0  0
 16 54  1  0  0  0  0
 17 19  1  0  0  0  0
 17 55  1  0  0  0  0
 17 56  1  0  0  0  0
 18 20  1  0  0  0  0
 18 57  1  0  0  0  0
 18 58  1  0  0  0  0
 19 21  1  0  0  0  0
 19 59  1  0  0  0  0
 19 60  1  0  0  0  0
 20 22  1  0  0  0  0
 20 61  1  0  0  0  0
 20 62  1  0  0  0  0
 21 63  1  0  0  0  0
 21 64  1  0  0  0  0
 21 65  1  0  0  0  0
 22 66  1  0  0  0  0
 22 67  1  0  0  0  0
 22 68  1  0  0  0  0
M  END
