
 OpenBabel11251909093D

 62 61  0  0  0  0  0  0  0  0999 V2000
    5.5420    2.3785    4.4957 C   0  0  0  0  0  0  0  0  0  0  0  0
    4.3658    1.6696    3.8138 C   0  0  0  0  0  0  0  0  0  0  0  0
    3.1267    2.5720    3.7757 C   0  0  0  0  0  0  0  0  0  0  0  0
    6.7819    1.4772    4.5315 C   0  0  0  0  0  0  0  0  0  0  0  0
    1.9512    1.8641    3.0916 C   0  0  0  0  0  0  0  0  0  0  0  0
    7.9588    2.1871    5.2113 C   0  0  0  0  0  0  0  0  0  0  0  0
    0.7129    2.7674    3.0514 C   0  0  0  0  0  0  0  0  0  0  0  0
    9.1994    1.2867    5.2450 C   0  0  0  0  0  0  0  0  0  0  0  0
   -0.4621    2.0603    2.3655 C   0  0  0  0  0  0  0  0  0  0  0  0
   10.3768    1.9974    5.9229 C   0  0  0  0  0  0  0  0  0  0  0  0
   -1.6998    2.9644    2.3237 C   0  0  0  0  0  0  0  0  0  0  0  0
   11.6181    1.0977    5.9550 C   0  0  0  0  0  0  0  0  0  0  0  0
   -2.8745    2.2579    1.6365 C   0  0  0  0  0  0  0  0  0  0  0  0
   12.7959    1.8090    6.6317 C   0  0  0  0  0  0  0  0  0  0  0  0
   -4.1118    3.1623    1.5937 C   0  0  0  0  0  0  0  0  0  0  0  0
   14.0375    0.9099    6.6628 C   0  0  0  0  0  0  0  0  0  0  0  0
   -5.2856    2.4556    0.9060 C   0  0  0  0  0  0  0  0  0  0  0  0
   15.2148    1.6218    7.3390 C   0  0  0  0  0  0  0  0  0  0  0  0
   -6.5191    3.3529    0.8611 C   0  0  0  0  0  0  0  0  0  0  0  0
   16.4527    0.7302    7.3715 C   0  0  0  0  0  0  0  0  0  0  0  0
    5.2546    2.6490    5.5358 H   0  0  0  0  0  0  0  0  0  0  0  0
    5.7822    3.3101    3.9371 H   0  0  0  0  0  0  0  0  0  0  0  0
    4.6541    1.3988    2.7739 H   0  0  0  0  0  0  0  0  0  0  0  0
    4.1247    0.7382    4.3723 H   0  0  0  0  0  0  0  0  0  0  0  0
    2.8376    2.8426    4.8153 H   0  0  0  0  0  0  0  0  0  0  0  0
    3.3687    3.5034    3.2176 H   0  0  0  0  0  0  0  0  0  0  0  0
    6.5426    0.5456    5.0905 H   0  0  0  0  0  0  0  0  0  0  0  0
    7.0685    1.2066    3.4912 H   0  0  0  0  0  0  0  0  0  0  0  0
    1.7084    0.9328    3.6497 H   0  0  0  0  0  0  0  0  0  0  0  0
    2.2411    1.5931    2.0523 H   0  0  0  0  0  0  0  0  0  0  0  0
    7.6729    2.4573    6.2519 H   0  0  0  0  0  0  0  0  0  0  0  0
    8.1972    3.1189    4.6522 H   0  0  0  0  0  0  0  0  0  0  0  0
    0.9564    3.6987    2.4937 H   0  0  0  0  0  0  0  0  0  0  0  0
    0.4223    3.0383    4.0906 H   0  0  0  0  0  0  0  0  0  0  0  0
    8.9617    0.3549    5.8043 H   0  0  0  0  0  0  0  0  0  0  0  0
    9.4845    1.0163    4.2042 H   0  0  0  0  0  0  0  0  0  0  0  0
   -0.7063    1.1292    2.9232 H   0  0  0  0  0  0  0  0  0  0  0  0
   -0.1709    1.7892    1.3266 H   0  0  0  0  0  0  0  0  0  0  0  0
   10.6139    2.9293    5.3635 H   0  0  0  0  0  0  0  0  0  0  0  0
   10.0923    2.2675    6.9640 H   0  0  0  0  0  0  0  0  0  0  0  0
   -1.9915    3.2355    3.3625 H   0  0  0  0  0  0  0  0  0  0  0  0
   -1.4551    3.8955    1.7662 H   0  0  0  0  0  0  0  0  0  0  0  0
   11.9021    0.8276    4.9138 H   0  0  0  0  0  0  0  0  0  0  0  0
   11.3815    0.1658    6.5146 H   0  0  0  0  0  0  0  0  0  0  0  0
   -2.5824    1.9867    0.5978 H   0  0  0  0  0  0  0  0  0  0  0  0
   -3.1196    1.3268    2.1940 H   0  0  0  0  0  0  0  0  0  0  0  0
   12.5122    2.0790    7.6730 H   0  0  0  0  0  0  0  0  0  0  0  0
   13.0321    2.7410    6.0721 H   0  0  0  0  0  0  0  0  0  0  0  0
   -4.4044    3.4335    2.6323 H   0  0  0  0  0  0  0  0  0  0  0  0
   -3.8668    4.0934    1.0362 H   0  0  0  0  0  0  0  0  0  0  0  0
   14.3213    0.6399    5.6215 H   0  0  0  0  0  0  0  0  0  0  0  0
   13.8019   -0.0222    7.2227 H   0  0  0  0  0  0  0  0  0  0  0  0
   -5.5387    1.5256    1.4604 H   0  0  0  0  0  0  0  0  0  0  0  0
   -5.0012    2.1848   -0.1342 H   0  0  0  0  0  0  0  0  0  0  0  0
   15.4582    2.5530    6.7821 H   0  0  0  0  0  0  0  0  0  0  0  0
   14.9395    1.8914    8.3820 H   0  0  0  0  0  0  0  0  0  0  0  0
   -6.3003    4.2819    0.2926 H   0  0  0  0  0  0  0  0  0  0  0  0
   -7.3515    2.8165    0.3588 H   0  0  0  0  0  0  0  0  0  0  0  0
   -6.8389    3.6215    1.8905 H   0  0  0  0  0  0  0  0  0  0  0  0
   16.2439   -0.1998    7.9420 H   0  0  0  0  0  0  0  0  0  0  0  0
   17.2877    1.2704    7.8655 H   0  0  0  0  0  0  0  0  0  0  0  0
   16.7635    0.4632    6.3389 H   0  0  0  0  0  0  0  0  0  0  0  0
  1  2  1  0  0  0  0
  1  4  1  0  0  0  0
  1 21  1  0  0  0  0
  1 22  1  0  0  0  0
  2  3  1  0  0  0  0
  2 23  1  0  0  0  0
  2 24  1  0  0  0  0
  3  5  1  0  0  0  0
  3 25  1  0  0  0  0
  3 26  1  0  0  0  0
  4  6  1  0  0  0  0
  4 27  1  0  0  0  0
  4 28  1  0  0  0  0
  5  7  1  0  0  0  0
  5 29  1  0  0  0  0
  5 30  1  0  0  0  0
  6  8  1  0  0  0  0
  6 31  1  0  0  0  0
  6 32  1  0  0  0  0
  7  9  1  0  0  0  0
  7 33  1  0  0  0  0
  7 34  1  0  0  0  0
  8 10  1  0  0  0  0
  8 35  1  0  0  0  0
  8 36  1  0  0  0  0
  9 11  1  0  0  0  0
  9 37  1  0  0  0  0
  9 38  1  0  0  0  0
 10 12  1  0  0  0  0
 10 39  1  0  0  0  0
 10 40  1  0  0  0  0
 11 13  1  0  0  0  0
 11 41  1  0  0  0  0
 11 42  1  0  0  0  0
 12 14  1  0  0  0  0
 12 43  1  0  0  0  0
 12 44  1  0  0  0  0
 13 15  1  0  0  0  0
 13 45  1  0  0  0  0
 13 46  1  0  0  0  0
 14 16  1  0  0  0  0
 14 47  1  0  0  0  0
 14 48  1  0  0  0  0
 15 17  1  0  0  0  0
 15 49  1  0  0  0  0
 15 50  1  0  0  0  0
 16 18  1  0  0  0  0
 16 51  1  0  0  0  0
 16 52  1  0  0  0  0
 17 19  1  0  0  0  0
 17 53  1  0  0  0  0
 17 54  1  0  0  0  0
 18 20  1  0  0  0  0
 18 55  1  0  0  0  0
 18 56  1  0  0  0  0
 19 57  1  0  0  0  0
 19 58  1  0  0  0  0
 19 59  1  0  0  0  0
 20 60  1  0  0  0  0
 20 61  1  0  0  0  0
 20 62  1  0  0  0  0
M  END
