  N-EICOSANE.mol	112-95-8
  NIST    07041514303D 1   1.00000  -787.46360
Copyright by the U.S. Sec. Commerce on behalf of U.S.A. All rights reserved.
 62 61  0  0  0  0  0  0  0  0999 V2000
    8.3865    2.6199    7.2826 C    0  0  0  0  0  0  0  0  0  0  0  0
    6.8677    2.3736    7.2600 C    0  0  0  0  0  0  0  0  0  0  0  0
    6.0114    3.6487    7.3395 C    0  0  0  0  0  0  0  0  0  0  0  0
    8.9419    3.3070    6.0254 C    0  0  0  0  0  0  0  0  0  0  0  0
    4.4862    3.4044    7.4105 C    0  0  0  0  0  0  0  0  0  0  0  0
   10.4585    3.5656    6.0557 C    0  0  0  0  0  0  0  0  0  0  0  0
    3.7292    3.4371    6.0700 C    0  0  0  0  0  0  0  0  0  0  0  0
   11.3316    2.3028    6.0396 C    0  0  0  0  0  0  0  0  0  0  0  0
    4.1186    2.3550    5.0516 C    0  0  0  0  0  0  0  0  0  0  0  0
   12.8355    2.6076    5.9998 C    0  0  0  0  0  0  0  0  0  0  0  0
    3.2800    2.3686    3.7595 C    0  0  0  0  0  0  0  0  0  0  0  0
   13.7083    1.3446    5.9836 C    0  0  0  0  0  0  0  0  0  0  0  0
    1.8233    1.9137    3.9392 C    0  0  0  0  0  0  0  0  0  0  0  0
   15.2214    1.6025    5.8739 C    0  0  0  0  0  0  0  0  0  0  0  0
    0.9722    1.9726    2.6589 C    0  0  0  0  0  0  0  0  0  0  0  0
   15.8413    2.2939    7.0976 C    0  0  0  0  0  0  0  0  0  0  0  0
    1.4032    1.0056    1.5468 C    0  0  0  0  0  0  0  0  0  0  0  0
   17.3574    2.5352    6.9930 C    0  0  0  0  0  0  0  0  0  0  0  0
    0.4783    1.0523    0.3258 C    0  0  0  0  0  0  0  0  0  0  0  0
   18.2071    1.2585    6.9782 C    0  0  0  0  0  0  0  0  0  0  0  0
    8.8899    1.6540    7.4203 H    0  0  0  0  0  0  0  0  0  0  0  0
    8.6422    3.2244    8.1664 H    0  0  0  0  0  0  0  0  0  0  0  0
    6.6105    1.7968    6.3615 H    0  0  0  0  0  0  0  0  0  0  0  0
    6.6048    1.7326    8.1136 H    0  0  0  0  0  0  0  0  0  0  0  0
    6.3240    4.2031    8.2359 H    0  0  0  0  0  0  0  0  0  0  0  0
    6.2306    4.3098    6.4898 H    0  0  0  0  0  0  0  0  0  0  0  0
    8.6963    2.6963    5.1431 H    0  0  0  0  0  0  0  0  0  0  0  0
    8.4319    4.2683    5.8801 H    0  0  0  0  0  0  0  0  0  0  0  0
    4.0375    4.1719    8.0550 H    0  0  0  0  0  0  0  0  0  0  0  0
    4.2943    2.4451    7.9141 H    0  0  0  0  0  0  0  0  0  0  0  0
   10.7044    4.1653    6.9450 H    0  0  0  0  0  0  0  0  0  0  0  0
   10.7260    4.1874    5.1893 H    0  0  0  0  0  0  0  0  0  0  0  0
    3.8714    4.4252    5.6061 H    0  0  0  0  0  0  0  0  0  0  0  0
    2.6559    3.3603    6.2896 H    0  0  0  0  0  0  0  0  0  0  0  0
   11.1168    1.6861    6.9230 H    0  0  0  0  0  0  0  0  0  0  0  0
   11.0624    1.6886    5.1669 H    0  0  0  0  0  0  0  0  0  0  0  0
    4.0415    1.3631    5.5221 H    0  0  0  0  0  0  0  0  0  0  0  0
    5.1742    2.4812    4.7789 H    0  0  0  0  0  0  0  0  0  0  0  0
   13.0602    3.2132    5.1086 H    0  0  0  0  0  0  0  0  0  0  0  0
   13.0947    3.2331    6.8651 H    0  0  0  0  0  0  0  0  0  0  0  0
    3.2925    3.3823    3.3305 H    0  0  0  0  0  0  0  0  0  0  0  0
    3.7715    1.7216    3.0214 H    0  0  0  0  0  0  0  0  0  0  0  0
   13.3975    0.7149    5.1376 H    0  0  0  0  0  0  0  0  0  0  0  0
   13.5074    0.7533    6.8896 H    0  0  0  0  0  0  0  0  0  0  0  0
    1.8148    0.8860    4.3333 H    0  0  0  0  0  0  0  0  0  0  0  0
    1.3375    2.5345    4.7031 H    0  0  0  0  0  0  0  0  0  0  0  0
   15.4210    2.2093    4.9775 H    0  0  0  0  0  0  0  0  0  0  0  0
   15.7235    0.6405    5.7067 H    0  0  0  0  0  0  0  0  0  0  0  0
   -0.0737    1.7583    2.9222 H    0  0  0  0  0  0  0  0  0  0  0  0
    0.9795    3.0006    2.2659 H    0  0  0  0  0  0  0  0  0  0  0  0
   15.6335    1.6916    7.9954 H    0  0  0  0  0  0  0  0  0  0  0  0
   15.3472    3.2609    7.2593 H    0  0  0  0  0  0  0  0  0  0  0  0
    2.4293    1.2328    1.2295 H    0  0  0  0  0  0  0  0  0  0  0  0
    1.4276   -0.0177    1.9491 H    0  0  0  0  0  0  0  0  0  0  0  0
   17.5674    3.1245    6.0887 H    0  0  0  0  0  0  0  0  0  0  0  0
   17.6716    3.1593    7.8405 H    0  0  0  0  0  0  0  0  0  0  0  0
    0.8051    0.3529   -0.4522 H    0  0  0  0  0  0  0  0  0  0  0  0
   -0.5518    0.7909    0.5982 H    0  0  0  0  0  0  0  0  0  0  0  0
    0.4572    2.0560   -0.1167 H    0  0  0  0  0  0  0  0  0  0  0  0
   18.0192    0.6505    7.8723 H    0  0  0  0  0  0  0  0  0  0  0  0
   19.2765    1.4982    6.9584 H    0  0  0  0  0  0  0  0  0  0  0  0
   17.9951    0.6344    6.1029 H    0  0  0  0  0  0  0  0  0  0  0  0
  1  2  1  0  0  0  0
  1  4  1  0  0  0  0
  1 21  1  0  0  0  0
  1 22  1  0  0  0  0
  2  3  1  0  0  0  0
  2 23  1  0  0  0  0
  2 24  1  0  0  0  0
  3  5  1  0  0  0  0
  3 25  1  0  0  0  0
  3 26  1  0  0  0  0
  4  6  1  0  0  0  0
  4 27  1  0  0  0  0
  4 28  1  0  0  0  0
  5  7  1  0  0  0  0
  5 29  1  0  0  0  0
  5 30  1  0  0  0  0
  6  8  1  0  0  0  0
  6 31  1  0  0  0  0
  6 32  1  0  0  0  0
  7  9  1  0  0  0  0
  7 33  1  0  0  0  0
  7 34  1  0  0  0  0
  8 10  1  0  0  0  0
  8 35  1  0  0  0  0
  8 36  1  0  0  0  0
  9 11  1  0  0  0  0
  9 37  1  0  0  0  0
  9 38  1  0  0  0  0
 10 12  1  0  0  0  0
 10 39  1  0  0  0  0
 10 40  1  0  0  0  0
 11 13  1  0  0  0  0
 11 41  1  0  0  0  0
 11 42  1  0  0  0  0
 12 14  1  0  0  0  0
 12 43  1  0  0  0  0
 12 44  1  0  0  0  0
 13 15  1  0  0  0  0
 13 45  1  0  0  0  0
 13 46  1  0  0  0  0
 14 16  1  0  0  0  0
 14 47  1  0  0  0  0
 14 48  1  0  0  0  0
 15 17  1  0  0  0  0
 15 49  1  0  0  0  0
 15 50  1  0  0  0  0
 16 18  1  0  0  0  0
 16 51  1  0  0  0  0
 16 52  1  0  0  0  0
 17 19  1  0  0  0  0
 17 53  1  0  0  0  0
 17 54  1  0  0  0  0
 18 20  1  0  0  0  0
 18 55  1  0  0  0  0
 18 56  1  0  0  0  0
 19 57  1  0  0  0  0
 19 58  1  0  0  0  0
 19 59  1  0  0  0  0
 20 60  1  0  0  0  0
 20 61  1  0  0  0  0
 20 62  1  0  0  0  0
M  END
