
 OpenBabel09281911263D

 83 82  0  0  0  0  0  0  0  0999 V2000
   -1.4446    6.3961    1.2348 C   0  0  0  0  0  0  0  0  0  0  0  0
   -1.9852    7.5750    0.4168 C   0  0  0  0  0  0  0  0  0  0  0  0
   -3.5075    7.6910    0.5588 C   0  0  0  0  0  0  0  0  0  0  0  0
    0.0777    6.2799    1.0927 C   0  0  0  0  0  0  0  0  0  0  0  0
   -4.0481    8.8698   -0.2593 C   0  0  0  0  0  0  0  0  0  0  0  0
    0.6183    5.1009    1.9105 C   0  0  0  0  0  0  0  0  0  0  0  0
   -5.5705    8.9858   -0.1175 C   0  0  0  0  0  0  0  0  0  0  0  0
    2.1406    4.9847    1.7682 C   0  0  0  0  0  0  0  0  0  0  0  0
   -6.1111   10.1644   -0.9357 C   0  0  0  0  0  0  0  0  0  0  0  0
    2.6812    3.8056    2.5859 C   0  0  0  0  0  0  0  0  0  0  0  0
   -7.6335   10.2803   -0.7941 C   0  0  0  0  0  0  0  0  0  0  0  0
    4.2034    3.6892    2.4436 C   0  0  0  0  0  0  0  0  0  0  0  0
   -8.1742   11.4589   -1.6124 C   0  0  0  0  0  0  0  0  0  0  0  0
    4.7440    2.5101    3.2611 C   0  0  0  0  0  0  0  0  0  0  0  0
   -9.6965   11.5747   -1.4708 C   0  0  0  0  0  0  0  0  0  0  0  0
    6.2663    2.3936    3.1187 C   0  0  0  0  0  0  0  0  0  0  0  0
  -10.2372   12.7532   -2.2892 C   0  0  0  0  0  0  0  0  0  0  0  0
    6.8068    1.2144    3.9362 C   0  0  0  0  0  0  0  0  0  0  0  0
  -11.7596   12.8689   -2.1477 C   0  0  0  0  0  0  0  0  0  0  0  0
    8.3291    1.0979    3.7937 C   0  0  0  0  0  0  0  0  0  0  0  0
  -12.3004   14.0474   -2.9662 C   0  0  0  0  0  0  0  0  0  0  0  0
    8.8697   -0.0813    4.6112 C   0  0  0  0  0  0  0  0  0  0  0  0
  -13.8227   14.1631   -2.8248 C   0  0  0  0  0  0  0  0  0  0  0  0
   10.3916   -0.1972    4.4683 C   0  0  0  0  0  0  0  0  0  0  0  0
  -14.3627   15.3415   -3.6433 C   0  0  0  0  0  0  0  0  0  0  0  0
   10.9336   -1.3699    5.2805 C   0  0  0  0  0  0  0  0  0  0  0  0
  -15.8777   15.4601   -3.5052 C   0  0  0  0  0  0  0  0  0  0  0  0
   -1.9190    5.4548    0.8793 H   0  0  0  0  0  0  0  0  0  0  0  0
   -1.7027    6.5443    2.3067 H   0  0  0  0  0  0  0  0  0  0  0  0
   -1.7270    7.4268   -0.6551 H   0  0  0  0  0  0  0  0  0  0  0  0
   -1.5107    8.5164    0.7723 H   0  0  0  0  0  0  0  0  0  0  0  0
   -3.7657    7.8393    1.6307 H   0  0  0  0  0  0  0  0  0  0  0  0
   -3.9819    6.7496    0.2033 H   0  0  0  0  0  0  0  0  0  0  0  0
    0.5523    7.2212    1.4482 H   0  0  0  0  0  0  0  0  0  0  0  0
    0.3358    6.1318    0.0207 H   0  0  0  0  0  0  0  0  0  0  0  0
   -3.5738    9.8113    0.0961 H   0  0  0  0  0  0  0  0  0  0  0  0
   -3.7898    8.7215   -1.3312 H   0  0  0  0  0  0  0  0  0  0  0  0
    0.1437    4.1597    1.5549 H   0  0  0  0  0  0  0  0  0  0  0  0
    0.3603    5.2491    2.9824 H   0  0  0  0  0  0  0  0  0  0  0  0
   -6.0447    8.0443   -0.4729 H   0  0  0  0  0  0  0  0  0  0  0  0
   -5.8288    9.1341    0.9543 H   0  0  0  0  0  0  0  0  0  0  0  0
    2.3986    4.8366    0.6963 H   0  0  0  0  0  0  0  0  0  0  0  0
    2.6152    5.9259    2.1238 H   0  0  0  0  0  0  0  0  0  0  0  0
   -5.8527   10.0161   -2.0076 H   0  0  0  0  0  0  0  0  0  0  0  0
   -5.6369   11.1059   -0.5803 H   0  0  0  0  0  0  0  0  0  0  0  0
    2.2065    2.8644    2.2303 H   0  0  0  0  0  0  0  0  0  0  0  0
    2.4232    3.9537    3.6579 H   0  0  0  0  0  0  0  0  0  0  0  0
   -8.1077    9.3388   -1.1495 H   0  0  0  0  0  0  0  0  0  0  0  0
   -7.8919   10.4287    0.2778 H   0  0  0  0  0  0  0  0  0  0  0  0
    4.4614    3.5412    1.3716 H   0  0  0  0  0  0  0  0  0  0  0  0
    4.6782    4.6304    2.7991 H   0  0  0  0  0  0  0  0  0  0  0  0
   -7.9157   11.3105   -2.6842 H   0  0  0  0  0  0  0  0  0  0  0  0
   -7.7000   12.4004   -1.2570 H   0  0  0  0  0  0  0  0  0  0  0  0
    4.4861    2.6581    4.3331 H   0  0  0  0  0  0  0  0  0  0  0  0
    4.2693    1.5689    2.9055 H   0  0  0  0  0  0  0  0  0  0  0  0
  -10.1706   10.6331   -1.8262 H   0  0  0  0  0  0  0  0  0  0  0  0
   -9.9551   11.7231   -0.3990 H   0  0  0  0  0  0  0  0  0  0  0  0
    6.7410    3.3348    3.4743 H   0  0  0  0  0  0  0  0  0  0  0  0
    6.5241    2.2456    2.0467 H   0  0  0  0  0  0  0  0  0  0  0  0
   -9.7631   13.6948   -1.9339 H   0  0  0  0  0  0  0  0  0  0  0  0
   -9.9787   12.6047   -3.3610 H   0  0  0  0  0  0  0  0  0  0  0  0
    6.3320    0.2732    3.5806 H   0  0  0  0  0  0  0  0  0  0  0  0
    6.5490    1.3624    5.0082 H   0  0  0  0  0  0  0  0  0  0  0  0
  -12.0182   13.0173   -1.0759 H   0  0  0  0  0  0  0  0  0  0  0  0
  -12.2337   11.9273   -2.5031 H   0  0  0  0  0  0  0  0  0  0  0  0
    8.8039    2.0390    4.1494 H   0  0  0  0  0  0  0  0  0  0  0  0
    8.5870    0.9499    2.7217 H   0  0  0  0  0  0  0  0  0  0  0  0
  -11.8263   14.9890   -2.6109 H   0  0  0  0  0  0  0  0  0  0  0  0
  -12.0418   13.8990   -4.0380 H   0  0  0  0  0  0  0  0  0  0  0  0
    8.3951   -1.0226    4.2556 H   0  0  0  0  0  0  0  0  0  0  0  0
    8.6121    0.0665    5.6833 H   0  0  0  0  0  0  0  0  0  0  0  0
  -14.2970   13.2217   -3.1803 H   0  0  0  0  0  0  0  0  0  0  0  0
  -14.0816   14.3118   -1.7531 H   0  0  0  0  0  0  0  0  0  0  0  0
   10.8730    0.7393    4.8255 H   0  0  0  0  0  0  0  0  0  0  0  0
   10.6562   -0.3490    3.3990 H   0  0  0  0  0  0  0  0  0  0  0  0
  -13.8954   16.2869   -3.2907 H   0  0  0  0  0  0  0  0  0  0  0  0
  -14.1107   15.1977   -4.7167 H   0  0  0  0  0  0  0  0  0  0  0  0
   12.0356   -1.4295    5.1584 H   0  0  0  0  0  0  0  0  0  0  0  0
   10.4847   -2.3233    4.9289 H   0  0  0  0  0  0  0  0  0  0  0  0
   10.7020   -1.2329    6.3583 H   0  0  0  0  0  0  0  0  0  0  0  0
  -16.2403   16.3198   -4.1071 H   0  0  0  0  0  0  0  0  0  0  0  0
  -16.3724   14.5354   -3.8718 H   0  0  0  0  0  0  0  0  0  0  0  0
  -16.1567   15.6268   -2.4429 H   0  0  0  0  0  0  0  0  0  0  0  0
  1  2  1  0  0  0  0
  1  4  1  0  0  0  0
  1 28  1  0  0  0  0
  1 29  1  0  0  0  0
  2  3  1  0  0  0  0
  2 30  1  0  0  0  0
  2 31  1  0  0  0  0
  3  5  1  0  0  0  0
  3 32  1  0  0  0  0
  3 33  1  0  0  0  0
  4  6  1  0  0  0  0
  4 34  1  0  0  0  0
  4 35  1  0  0  0  0
  5  7  1  0  0  0  0
  5 36  1  0  0  0  0
  5 37  1  0  0  0  0
  6  8  1  0  0  0  0
  6 38  1  0  0  0  0
  6 39  1  0  0  0  0
  7  9  1  0  0  0  0
  7 40  1  0  0  0  0
  7 41  1  0  0  0  0
  8 10  1  0  0  0  0
  8 42  1  0  0  0  0
  8 43  1  0  0  0  0
  9 11  1  0  0  0  0
  9 44  1  0  0  0  0
  9 45  1  0  0  0  0
 10 12  1  0  0  0  0
 10 46  1  0  0  0  0
 10 47  1  0  0  0  0
 11 13  1  0  0  0  0
 11 48  1  0  0  0  0
 11 49  1  0  0  0  0
 12 14  1  0  0  0  0
 12 50  1  0  0  0  0
 12 51  1  0  0  0  0
 13 15  1  0  0  0  0
 13 52  1  0  0  0  0
 13 53  1  0  0  0  0
 14 16  1  0  0  0  0
 14 54  1  0  0  0  0
 14 55  1  0  0  0  0
 15 17  1  0  0  0  0
 15 56  1  0  0  0  0
 15 57  1  0  0  0  0
 16 18  1  0  0  0  0
 16 58  1  0  0  0  0
 16 59  1  0  0  0  0
 17 19  1  0  0  0  0
 17 60  1  0  0  0  0
 17 61  1  0  0  0  0
 18 20  1  0  0  0  0
 18 62  1  0  0  0  0
 18 63  1  0  0  0  0
 19 21  1  0  0  0  0
 19 64  1  0  0  0  0
 19 65  1  0  0  0  0
 20 22  1  0  0  0  0
 20 66  1  0  0  0  0
 20 67  1  0  0  0  0
 21 23  1  0  0  0  0
 21 68  1  0  0  0  0
 21 69  1  0  0  0  0
 22 24  1  0  0  0  0
 22 70  1  0  0  0  0
 22 71  1  0  0  0  0
 23 25  1  0  0  0  0
 23 72  1  0  0  0  0
 23 73  1  0  0  0  0
 24 26  1  0  0  0  0
 24 74  1  0  0  0  0
 24 75  1  0  0  0  0
 25 27  1  0  0  0  0
 25 76  1  0  0  0  0
 25 77  1  0  0  0  0
 26 78  1  0  0  0  0
 26 79  1  0  0  0  0
 26 80  1  0  0  0  0
 27 81  1  0  0  0  0
 27 82  1  0  0  0  0
 27 83  1  0  0  0  0
M  END
