
 OpenBabel09281909203D

 50 49  0  0  0  0  0  0  0  0999 V2000
    5.0903    6.6186    3.8546 C   0  0  0  0  0  0  0  0  0  0  0  0
    6.2609    5.6282    3.8581 C   0  0  0  0  0  0  0  0  0  0  0  0
    6.1081    4.5917    2.7385 C   0  0  0  0  0  0  0  0  0  0  0  0
    5.2430    7.6549    4.9743 C   0  0  0  0  0  0  0  0  0  0  0  0
    7.2786    3.6012    2.7422 C   0  0  0  0  0  0  0  0  0  0  0  0
    4.0724    8.6452    4.9709 C   0  0  0  0  0  0  0  0  0  0  0  0
    7.1257    2.5646    1.6227 C   0  0  0  0  0  0  0  0  0  0  0  0
    4.2249    9.6814    6.0907 C   0  0  0  0  0  0  0  0  0  0  0  0
    8.2961    1.5740    1.6264 C   0  0  0  0  0  0  0  0  0  0  0  0
    3.0542   10.6717    6.0874 C   0  0  0  0  0  0  0  0  0  0  0  0
    8.1432    0.5373    0.5071 C   0  0  0  0  0  0  0  0  0  0  0  0
    3.2067   11.7078    7.2073 C   0  0  0  0  0  0  0  0  0  0  0  0
    9.3136   -0.4528    0.5115 C   0  0  0  0  0  0  0  0  0  0  0  0
    2.0359   12.6974    7.2035 C   0  0  0  0  0  0  0  0  0  0  0  0
    9.1650   -1.4863   -0.6013 C   0  0  0  0  0  0  0  0  0  0  0  0
    2.1839   13.7304    8.3169 C   0  0  0  0  0  0  0  0  0  0  0  0
    4.1381    6.0615    3.9977 H   0  0  0  0  0  0  0  0  0  0  0  0
    5.0551    7.1414    2.8732 H   0  0  0  0  0  0  0  0  0  0  0  0
    7.2132    6.1852    3.7149 H   0  0  0  0  0  0  0  0  0  0  0  0
    6.2962    5.1055    4.8395 H   0  0  0  0  0  0  0  0  0  0  0  0
    6.0729    5.1144    1.7571 H   0  0  0  0  0  0  0  0  0  0  0  0
    5.1558    4.0348    2.8817 H   0  0  0  0  0  0  0  0  0  0  0  0
    6.1952    8.2121    4.8312 H   0  0  0  0  0  0  0  0  0  0  0  0
    5.2783    7.1321    5.9556 H   0  0  0  0  0  0  0  0  0  0  0  0
    7.3138    3.0787    3.7237 H   0  0  0  0  0  0  0  0  0  0  0  0
    8.2309    4.1581    2.5989 H   0  0  0  0  0  0  0  0  0  0  0  0
    3.1202    8.0880    5.1139 H   0  0  0  0  0  0  0  0  0  0  0  0
    4.0370    9.1681    3.9896 H   0  0  0  0  0  0  0  0  0  0  0  0
    7.0905    3.0872    0.6412 H   0  0  0  0  0  0  0  0  0  0  0  0
    6.1733    2.0078    1.7660 H   0  0  0  0  0  0  0  0  0  0  0  0
    5.1771   10.2387    5.9477 H   0  0  0  0  0  0  0  0  0  0  0  0
    4.2603    9.1585    7.0720 H   0  0  0  0  0  0  0  0  0  0  0  0
    9.2485    2.1308    1.4831 H   0  0  0  0  0  0  0  0  0  0  0  0
    8.3313    1.0515    2.6080 H   0  0  0  0  0  0  0  0  0  0  0  0
    3.0188   11.1947    5.1062 H   0  0  0  0  0  0  0  0  0  0  0  0
    2.1020   10.1144    6.2305 H   0  0  0  0  0  0  0  0  0  0  0  0
    8.1082    1.0596   -0.4746 H   0  0  0  0  0  0  0  0  0  0  0  0
    7.1909   -0.0198    0.6503 H   0  0  0  0  0  0  0  0  0  0  0  0
    4.1587   12.2654    7.0644 H   0  0  0  0  0  0  0  0  0  0  0  0
    3.2419   11.1851    8.1887 H   0  0  0  0  0  0  0  0  0  0  0  0
    9.3524   -0.9814    1.4890 H   0  0  0  0  0  0  0  0  0  0  0  0
   10.2689    0.0970    0.3650 H   0  0  0  0  0  0  0  0  0  0  0  0
    1.9968   13.2265    6.2263 H   0  0  0  0  0  0  0  0  0  0  0  0
    1.0808   12.1471    7.3497 H   0  0  0  0  0  0  0  0  0  0  0  0
    9.1457   -0.9860   -1.5929 H   0  0  0  0  0  0  0  0  0  0  0  0
   10.0247   -2.1887   -0.5742 H   0  0  0  0  0  0  0  0  0  0  0  0
    8.2273   -2.0666   -0.4667 H   0  0  0  0  0  0  0  0  0  0  0  0
    3.1214   14.3111    8.1826 H   0  0  0  0  0  0  0  0  0  0  0  0
    2.2035   13.2295    9.3082 H   0  0  0  0  0  0  0  0  0  0  0  0
    1.3240   14.4324    8.2902 H   0  0  0  0  0  0  0  0  0  0  0  0
  1  2  1  0  0  0  0
  1  4  1  0  0  0  0
  1 17  1  0  0  0  0
  1 18  1  0  0  0  0
  2  3  1  0  0  0  0
  2 19  1  0  0  0  0
  2 20  1  0  0  0  0
  3  5  1  0  0  0  0
  3 21  1  0  0  0  0
  3 22  1  0  0  0  0
  4  6  1  0  0  0  0
  4 23  1  0  0  0  0
  4 24  1  0  0  0  0
  5  7  1  0  0  0  0
  5 25  1  0  0  0  0
  5 26  1  0  0  0  0
  6  8  1  0  0  0  0
  6 27  1  0  0  0  0
  6 28  1  0  0  0  0
  7  9  1  0  0  0  0
  7 29  1  0  0  0  0
  7 30  1  0  0  0  0
  8 10  1  0  0  0  0
  8 31  1  0  0  0  0
  8 32  1  0  0  0  0
  9 11  1  0  0  0  0
  9 33  1  0  0  0  0
  9 34  1  0  0  0  0
 10 12  1  0  0  0  0
 10 35  1  0  0  0  0
 10 36  1  0  0  0  0
 11 13  1  0  0  0  0
 11 37  1  0  0  0  0
 11 38  1  0  0  0  0
 12 14  1  0  0  0  0
 12 39  1  0  0  0  0
 12 40  1  0  0  0  0
 13 15  1  0  0  0  0
 13 41  1  0  0  0  0
 13 42  1  0  0  0  0
 14 16  1  0  0  0  0
 14 43  1  0  0  0  0
 14 44  1  0  0  0  0
 15 45  1  0  0  0  0
 15 46  1  0  0  0  0
 15 47  1  0  0  0  0
 16 48  1  0  0  0  0
 16 49  1  0  0  0  0
 16 50  1  0  0  0  0
M  END
