
 OpenBabel11251909183D

 50 49  0  0  0  0  0  0  0  0999 V2000
    4.5416    6.8727    4.9035 C   0  0  0  0  0  0  0  0  0  0  0  0
    3.4279    7.8632    4.5435 C   0  0  0  0  0  0  0  0  0  0  0  0
    3.3849    9.0285    5.5392 C   0  0  0  0  0  0  0  0  0  0  0  0
    4.5846    5.7075    3.9077 C   0  0  0  0  0  0  0  0  0  0  0  0
    2.2713   10.0192    5.1792 C   0  0  0  0  0  0  0  0  0  0  0  0
    5.6984    4.7170    4.2676 C   0  0  0  0  0  0  0  0  0  0  0  0
    2.2284   11.1845    6.1747 C   0  0  0  0  0  0  0  0  0  0  0  0
    5.7415    3.5519    3.2718 C   0  0  0  0  0  0  0  0  0  0  0  0
    1.1149   12.1752    5.8147 C   0  0  0  0  0  0  0  0  0  0  0  0
    6.8554    2.5614    3.6316 C   0  0  0  0  0  0  0  0  0  0  0  0
    1.0720   13.3406    6.8102 C   0  0  0  0  0  0  0  0  0  0  0  0
    6.8986    1.3963    2.6358 C   0  0  0  0  0  0  0  0  0  0  0  0
   -0.0414   14.3307    6.4496 C   0  0  0  0  0  0  0  0  0  0  0  0
    8.0125    0.4065    2.9960 C   0  0  0  0  0  0  0  0  0  0  0  0
   -0.0873   15.4922    7.4381 C   0  0  0  0  0  0  0  0  0  0  0  0
    8.0588   -0.7547    2.0071 C   0  0  0  0  0  0  0  0  0  0  0  0
    5.5204    7.4013    4.8921 H   0  0  0  0  0  0  0  0  0  0  0  0
    4.3618    6.4745    5.9266 H   0  0  0  0  0  0  0  0  0  0  0  0
    3.6077    8.2614    3.5204 H   0  0  0  0  0  0  0  0  0  0  0  0
    2.4490    7.3347    4.5549 H   0  0  0  0  0  0  0  0  0  0  0  0
    4.3638    9.5570    5.5278 H   0  0  0  0  0  0  0  0  0  0  0  0
    3.2051    8.6304    6.5623 H   0  0  0  0  0  0  0  0  0  0  0  0
    4.7644    6.1057    2.8846 H   0  0  0  0  0  0  0  0  0  0  0  0
    3.6058    5.1789    3.9191 H   0  0  0  0  0  0  0  0  0  0  0  0
    1.2924    9.4907    5.1906 H   0  0  0  0  0  0  0  0  0  0  0  0
    2.4511   10.4172    4.1560 H   0  0  0  0  0  0  0  0  0  0  0  0
    5.5186    4.3187    5.2907 H   0  0  0  0  0  0  0  0  0  0  0  0
    6.6772    5.2457    4.2563 H   0  0  0  0  0  0  0  0  0  0  0  0
    3.2074   11.7129    6.1633 H   0  0  0  0  0  0  0  0  0  0  0  0
    2.0486   10.7864    7.1979 H   0  0  0  0  0  0  0  0  0  0  0  0
    5.9212    3.9502    2.2487 H   0  0  0  0  0  0  0  0  0  0  0  0
    4.7628    3.0232    3.2831 H   0  0  0  0  0  0  0  0  0  0  0  0
    1.2947   12.5733    4.7915 H   0  0  0  0  0  0  0  0  0  0  0  0
    0.1359   11.6468    5.8261 H   0  0  0  0  0  0  0  0  0  0  0  0
    7.8342    3.0901    3.6203 H   0  0  0  0  0  0  0  0  0  0  0  0
    6.6757    2.1630    4.6546 H   0  0  0  0  0  0  0  0  0  0  0  0
    2.0508   13.8693    6.7988 H   0  0  0  0  0  0  0  0  0  0  0  0
    0.8920   12.9428    7.8334 H   0  0  0  0  0  0  0  0  0  0  0  0
    7.0785    1.7944    1.6126 H   0  0  0  0  0  0  0  0  0  0  0  0
    5.9200    0.8673    2.6470 H   0  0  0  0  0  0  0  0  0  0  0  0
    0.1342   14.7353    5.4289 H   0  0  0  0  0  0  0  0  0  0  0  0
   -1.0237   13.8097    6.4627 H   0  0  0  0  0  0  0  0  0  0  0  0
    7.8369    0.0015    4.0166 H   0  0  0  0  0  0  0  0  0  0  0  0
    8.9945    0.9279    2.9830 H   0  0  0  0  0  0  0  0  0  0  0  0
   -0.2840   15.1175    8.4653 H   0  0  0  0  0  0  0  0  0  0  0  0
   -0.9011   16.1918    7.1530 H   0  0  0  0  0  0  0  0  0  0  0  0
    0.8762   16.0450    7.4294 H   0  0  0  0  0  0  0  0  0  0  0  0
    8.8728   -1.4540    2.2919 H   0  0  0  0  0  0  0  0  0  0  0  0
    8.2553   -0.3796    0.9801 H   0  0  0  0  0  0  0  0  0  0  0  0
    7.0954   -1.3079    2.0157 H   0  0  0  0  0  0  0  0  0  0  0  0
  1  2  1  0  0  0  0
  1  4  1  0  0  0  0
  1 17  1  0  0  0  0
  1 18  1  0  0  0  0
  2  3  1  0  0  0  0
  2 19  1  0  0  0  0
  2 20  1  0  0  0  0
  3  5  1  0  0  0  0
  3 21  1  0  0  0  0
  3 22  1  0  0  0  0
  4  6  1  0  0  0  0
  4 23  1  0  0  0  0
  4 24  1  0  0  0  0
  5  7  1  0  0  0  0
  5 25  1  0  0  0  0
  5 26  1  0  0  0  0
  6  8  1  0  0  0  0
  6 27  1  0  0  0  0
  6 28  1  0  0  0  0
  7  9  1  0  0  0  0
  7 29  1  0  0  0  0
  7 30  1  0  0  0  0
  8 10  1  0  0  0  0
  8 31  1  0  0  0  0
  8 32  1  0  0  0  0
  9 11  1  0  0  0  0
  9 33  1  0  0  0  0
  9 34  1  0  0  0  0
 10 12  1  0  0  0  0
 10 35  1  0  0  0  0
 10 36  1  0  0  0  0
 11 13  1  0  0  0  0
 11 37  1  0  0  0  0
 11 38  1  0  0  0  0
 12 14  1  0  0  0  0
 12 39  1  0  0  0  0
 12 40  1  0  0  0  0
 13 15  1  0  0  0  0
 13 41  1  0  0  0  0
 13 42  1  0  0  0  0
 14 16  1  0  0  0  0
 14 43  1  0  0  0  0
 14 44  1  0  0  0  0
 15 45  1  0  0  0  0
 15 46  1  0  0  0  0
 15 47  1  0  0  0  0
 16 48  1  0  0  0  0
 16 49  1  0  0  0  0
 16 50  1  0  0  0  0
M  END
