
 OpenBabel09281911053D

 53 52  0  0  0  0  0  0  0  0999 V2000
    4.6336    0.4577    2.8091 C   0  0  0  0  0  0  0  0  0  0  0  0
    3.4061    0.3661    3.7234 C   0  0  0  0  0  0  0  0  0  0  0  0
    2.1091    0.5219    2.9207 C   0  0  0  0  0  0  0  0  0  0  0  0
    5.9306    0.3019    3.6119 C   0  0  0  0  0  0  0  0  0  0  0  0
    0.8817    0.4302    3.8351 C   0  0  0  0  0  0  0  0  0  0  0  0
    7.1581    0.3936    2.6977 C   0  0  0  0  0  0  0  0  0  0  0  0
   -0.4155    0.5860    3.0326 C   0  0  0  0  0  0  0  0  0  0  0  0
    8.4551    0.2378    3.5007 C   0  0  0  0  0  0  0  0  0  0  0  0
   -1.6427    0.4943    3.9472 C   0  0  0  0  0  0  0  0  0  0  0  0
    9.6827    0.3295    2.5866 C   0  0  0  0  0  0  0  0  0  0  0  0
   -2.9400    0.6501    3.1447 C   0  0  0  0  0  0  0  0  0  0  0  0
   10.9796    0.1737    3.3896 C   0  0  0  0  0  0  0  0  0  0  0  0
   -4.1672    0.5585    4.0593 C   0  0  0  0  0  0  0  0  0  0  0  0
   12.2066    0.2654    2.4751 C   0  0  0  0  0  0  0  0  0  0  0  0
   -5.4638    0.7143    3.2564 C   0  0  0  0  0  0  0  0  0  0  0  0
   13.4995    0.1109    3.2708 C   0  0  0  0  0  0  0  0  0  0  0  0
   -6.6877    0.6237    4.1633 C   0  0  0  0  0  0  0  0  0  0  0  0
    4.6360    1.4449    2.2961 H   0  0  0  0  0  0  0  0  0  0  0  0
    4.5793   -0.3448    2.0405 H   0  0  0  0  0  0  0  0  0  0  0  0
    3.4605    1.1686    4.4920 H   0  0  0  0  0  0  0  0  0  0  0  0
    3.4037   -0.6211    4.2364 H   0  0  0  0  0  0  0  0  0  0  0  0
    2.1114    1.5090    2.4077 H   0  0  0  0  0  0  0  0  0  0  0  0
    2.0547   -0.2807    2.1521 H   0  0  0  0  0  0  0  0  0  0  0  0
    5.9849    1.1044    4.3805 H   0  0  0  0  0  0  0  0  0  0  0  0
    5.9281   -0.6852    4.1249 H   0  0  0  0  0  0  0  0  0  0  0  0
    0.8794   -0.5570    4.3481 H   0  0  0  0  0  0  0  0  0  0  0  0
    0.9362    1.2327    4.6037 H   0  0  0  0  0  0  0  0  0  0  0  0
    7.1039   -0.4089    1.9292 H   0  0  0  0  0  0  0  0  0  0  0  0
    7.1606    1.3808    2.1847 H   0  0  0  0  0  0  0  0  0  0  0  0
   -0.4699   -0.2165    2.2640 H   0  0  0  0  0  0  0  0  0  0  0  0
   -0.4131    1.5732    2.5196 H   0  0  0  0  0  0  0  0  0  0  0  0
    8.5093    1.0403    4.2693 H   0  0  0  0  0  0  0  0  0  0  0  0
    8.4526   -0.7493    4.0137 H   0  0  0  0  0  0  0  0  0  0  0  0
   -1.6450   -0.4928    4.4601 H   0  0  0  0  0  0  0  0  0  0  0  0
   -1.5882    1.2968    4.7157 H   0  0  0  0  0  0  0  0  0  0  0  0
    9.6285   -0.4730    1.8180 H   0  0  0  0  0  0  0  0  0  0  0  0
    9.6852    1.3166    2.0736 H   0  0  0  0  0  0  0  0  0  0  0  0
   -2.9377    1.6373    2.6317 H   0  0  0  0  0  0  0  0  0  0  0  0
   -2.9946   -0.1524    2.3761 H   0  0  0  0  0  0  0  0  0  0  0  0
   11.0341    0.9763    4.1581 H   0  0  0  0  0  0  0  0  0  0  0  0
   10.9774   -0.8135    3.9025 H   0  0  0  0  0  0  0  0  0  0  0  0
   -4.1130    1.3610    4.8278 H   0  0  0  0  0  0  0  0  0  0  0  0
   -4.1698   -0.4287    4.5722 H   0  0  0  0  0  0  0  0  0  0  0  0
   12.1606   -0.5366    1.7063 H   0  0  0  0  0  0  0  0  0  0  0  0
   12.2172    1.2517    1.9617 H   0  0  0  0  0  0  0  0  0  0  0  0
   -5.4697    1.7010    2.7437 H   0  0  0  0  0  0  0  0  0  0  0  0
   -5.5265   -0.0873    2.4883 H   0  0  0  0  0  0  0  0  0  0  0  0
   14.3696    0.1813    2.5845 H   0  0  0  0  0  0  0  0  0  0  0  0
   13.5820    0.9145    4.0333 H   0  0  0  0  0  0  0  0  0  0  0  0
   13.5253   -0.8774    3.7775 H   0  0  0  0  0  0  0  0  0  0  0  0
   -6.6618    1.4287    4.9284 H   0  0  0  0  0  0  0  0  0  0  0  0
   -6.7187   -0.3632    4.6725 H   0  0  0  0  0  0  0  0  0  0  0  0
   -7.6102    0.7397    3.5563 H   0  0  0  0  0  0  0  0  0  0  0  0
  1  2  1  0  0  0  0
  1  4  1  0  0  0  0
  1 18  1  0  0  0  0
  1 19  1  0  0  0  0
  2  3  1  0  0  0  0
  2 20  1  0  0  0  0
  2 21  1  0  0  0  0
  3  5  1  0  0  0  0
  3 22  1  0  0  0  0
  3 23  1  0  0  0  0
  4  6  1  0  0  0  0
  4 24  1  0  0  0  0
  4 25  1  0  0  0  0
  5  7  1  0  0  0  0
  5 26  1  0  0  0  0
  5 27  1  0  0  0  0
  6  8  1  0  0  0  0
  6 28  1  0  0  0  0
  6 29  1  0  0  0  0
  7  9  1  0  0  0  0
  7 30  1  0  0  0  0
  7 31  1  0  0  0  0
  8 10  1  0  0  0  0
  8 32  1  0  0  0  0
  8 33  1  0  0  0  0
  9 11  1  0  0  0  0
  9 34  1  0  0  0  0
  9 35  1  0  0  0  0
 10 12  1  0  0  0  0
 10 36  1  0  0  0  0
 10 37  1  0  0  0  0
 11 13  1  0  0  0  0
 11 38  1  0  0  0  0
 11 39  1  0  0  0  0
 12 14  1  0  0  0  0
 12 40  1  0  0  0  0
 12 41  1  0  0  0  0
 13 15  1  0  0  0  0
 13 42  1  0  0  0  0
 13 43  1  0  0  0  0
 14 16  1  0  0  0  0
 14 44  1  0  0  0  0
 14 45  1  0  0  0  0
 15 17  1  0  0  0  0
 15 46  1  0  0  0  0
 15 47  1  0  0  0  0
 16 48  1  0  0  0  0
 16 49  1  0  0  0  0
 16 50  1  0  0  0  0
 17 51  1  0  0  0  0
 17 52  1  0  0  0  0
 17 53  1  0  0  0  0
M  END
