  N-HEXADECYLNITRILE.mol	629-79-8
  NIST    07021513073D 1   1.00000  -683.14782
Copyright by the U.S. Sec. Commerce on behalf of U.S.A. All rights reserved.
 48 47  0  0  0  0  0  0  0  0999 V2000
  155.9835   10.0126    0.0002 C    0  0  0  0  0  0  0  0  0  0  0  0
  154.6904    9.1870   -0.0000 C    0  0  0  0  0  0  0  0  0  0  0  0
  154.9311    7.6718    0.0002 C    0  0  0  0  0  0  0  0  0  0  0  0
  155.7441   11.5280    0.0000 C    0  0  0  0  0  0  0  0  0  0  0  0
  153.6383    6.8458   -0.0001 C    0  0  0  0  0  0  0  0  0  0  0  0
  157.0374   12.3534    0.0002 C    0  0  0  0  0  0  0  0  0  0  0  0
  153.8820    5.3310    0.0001 C    0  0  0  0  0  0  0  0  0  0  0  0
  156.7985   13.8688   -0.0000 C    0  0  0  0  0  0  0  0  0  0  0  0
  152.5888    4.5055   -0.0001 C    0  0  0  0  0  0  0  0  0  0  0  0
  158.0918   14.6941    0.0001 C    0  0  0  0  0  0  0  0  0  0  0  0
  152.8423    2.9935    0.0001 C    0  0  0  0  0  0  0  0  0  0  0  0
  157.8536   16.2095   -0.0001 C    0  0  0  0  0  0  0  0  0  0  0  0
  151.5280    2.1843   -0.0003 C    0  0  0  0  0  0  0  0  0  0  0  0
  159.1469   17.0347    0.0000 C    0  0  0  0  0  0  0  0  0  0  0  0
  151.7528    0.7357   -0.0001 C    0  0  0  0  0  0  0  0  0  0  0  0
  158.9010   18.5468   -0.0002 C    0  0  0  0  0  0  0  0  0  0  0  0
  151.9509   -0.4082    0.0000 N    0  0  0  0  0  0  0  0  0  0  0  0
  156.5874    9.7409    0.8788 H    0  0  0  0  0  0  0  0  0  0  0  0
  156.5878    9.7407   -0.8781 H    0  0  0  0  0  0  0  0  0  0  0  0
  154.0864    9.4583   -0.8787 H    0  0  0  0  0  0  0  0  0  0  0  0
  154.0860    9.4584    0.8784 H    0  0  0  0  0  0  0  0  0  0  0  0
  155.5350    7.4004    0.8788 H    0  0  0  0  0  0  0  0  0  0  0  0
  155.5354    7.4002   -0.8781 H    0  0  0  0  0  0  0  0  0  0  0  0
  155.1401   11.7997   -0.8786 H    0  0  0  0  0  0  0  0  0  0  0  0
  155.1398   11.7999    0.8783 H    0  0  0  0  0  0  0  0  0  0  0  0
  153.0343    7.1162   -0.8789 H    0  0  0  0  0  0  0  0  0  0  0  0
  153.0338    7.1163    0.8784 H    0  0  0  0  0  0  0  0  0  0  0  0
  157.6413   12.0815    0.8788 H    0  0  0  0  0  0  0  0  0  0  0  0
  157.6417   12.0813   -0.8781 H    0  0  0  0  0  0  0  0  0  0  0  0
  154.4851    5.0598    0.8789 H    0  0  0  0  0  0  0  0  0  0  0  0
  154.4856    5.0596   -0.8783 H    0  0  0  0  0  0  0  0  0  0  0  0
  156.1945   14.1406   -0.8786 H    0  0  0  0  0  0  0  0  0  0  0  0
  156.1942   14.1408    0.8783 H    0  0  0  0  0  0  0  0  0  0  0  0
  151.9850    4.7740   -0.8796 H    0  0  0  0  0  0  0  0  0  0  0  0
  151.9846    4.7741    0.8790 H    0  0  0  0  0  0  0  0  0  0  0  0
  158.6957   14.4221    0.8788 H    0  0  0  0  0  0  0  0  0  0  0  0
  158.6961   14.4219   -0.8782 H    0  0  0  0  0  0  0  0  0  0  0  0
  153.4348    2.7121    0.8794 H    0  0  0  0  0  0  0  0  0  0  0  0
  153.4353    2.7120   -0.8789 H    0  0  0  0  0  0  0  0  0  0  0  0
  157.2501   16.4826   -0.8788 H    0  0  0  0  0  0  0  0  0  0  0  0
  157.2498   16.4829    0.8782 H    0  0  0  0  0  0  0  0  0  0  0  0
  150.9244    2.4407   -0.8805 H    0  0  0  0  0  0  0  0  0  0  0  0
  150.9239    2.4408    0.8796 H    0  0  0  0  0  0  0  0  0  0  0  0
  159.7498   16.7623    0.8782 H    0  0  0  0  0  0  0  0  0  0  0  0
  159.7502   16.7621   -0.8778 H    0  0  0  0  0  0  0  0  0  0  0  0
  159.8438   19.1059   -0.0001 H    0  0  0  0  0  0  0  0  0  0  0  0
  158.3309   18.8560   -0.8851 H    0  0  0  0  0  0  0  0  0  0  0  0
  158.3305   18.8562    0.8842 H    0  0  0  0  0  0  0  0  0  0  0  0
  1  2  1  0
  1  4  1  0
  2  3  1  0
  3  5  1  0
  4  6  1  0
  5  7  1  0
  6  8  1  0
  7  9  1  0
  8 10  1  0
  9 11  1  0
 10 12  1  0
 11 13  1  0
 12 14  1  0
 13 15  1  0
 14 16  1  0
 15 17  3  0
  1 18  1  0
  1 19  1  0
  2 20  1  0
  2 21  1  0
  3 22  1  0
  3 23  1  0
  4 24  1  0
  4 25  1  0
  5 26  1  0
  5 27  1  0
  6 28  1  0
  6 29  1  0
  7 30  1  0
  7 31  1  0
  8 32  1  0
  8 33  1  0
  9 34  1  0
  9 35  1  0
 10 36  1  0
 10 37  1  0
 11 38  1  0
 11 39  1  0
 12 40  1  0
 12 41  1  0
 13 42  1  0
 13 43  1  0
 14 44  1  0
 14 45  1  0
 16 46  1  0
 16 47  1  0
 16 48  1  0
M  END
