
 OpenBabel11271911083D

 65 64  0  0  0  0  0  0  0  0999 V2000
    6.2028    4.5480    3.6945 C   0  0  0  0  0  0  0  0  0  0  0  0
    5.2103    5.1042    2.6666 C   0  0  0  0  0  0  0  0  0  0  0  0
    3.8572    5.4119    3.3188 C   0  0  0  0  0  0  0  0  0  0  0  0
    7.5553    4.2383    3.0420 C   0  0  0  0  0  0  0  0  0  0  0  0
    2.8640    5.9662    2.2906 C   0  0  0  0  0  0  0  0  0  0  0  0
    8.5471    3.6803    4.0696 C   0  0  0  0  0  0  0  0  0  0  0  0
    1.5103    6.2721    2.9426 C   0  0  0  0  0  0  0  0  0  0  0  0
    9.8991    3.3688    3.4168 C   0  0  0  0  0  0  0  0  0  0  0  0
    0.5164    6.8247    1.9140 C   0  0  0  0  0  0  0  0  0  0  0  0
   10.8903    2.8093    4.4442 C   0  0  0  0  0  0  0  0  0  0  0  0
   -0.8377    7.1291    2.5658 C   0  0  0  0  0  0  0  0  0  0  0  0
   12.2419    2.4966    3.7912 C   0  0  0  0  0  0  0  0  0  0  0  0
   -1.8321    7.6804    1.5370 C   0  0  0  0  0  0  0  0  0  0  0  0
   13.2327    1.9361    4.8184 C   0  0  0  0  0  0  0  0  0  0  0  0
   -3.1865    7.9838    2.1886 C   0  0  0  0  0  0  0  0  0  0  0  0
   14.5841    1.6225    4.1654 C   0  0  0  0  0  0  0  0  0  0  0  0
   -4.1812    8.5343    1.1598 C   0  0  0  0  0  0  0  0  0  0  0  0
   15.5740    1.0618    5.1929 C   0  0  0  0  0  0  0  0  0  0  0  0
   -5.5352    8.8369    1.8119 C   0  0  0  0  0  0  0  0  0  0  0  0
   16.9203    0.7481    4.5466 C   0  0  0  0  0  0  0  0  0  0  0  0
   -6.5282    9.3848    0.7910 C   0  0  0  0  0  0  0  0  0  0  0  0
    6.3490    5.2955    4.5054 H   0  0  0  0  0  0  0  0  0  0  0  0
    5.7877    3.6159    4.1378 H   0  0  0  0  0  0  0  0  0  0  0  0
    5.6247    6.0366    2.2234 H   0  0  0  0  0  0  0  0  0  0  0  0
    5.0648    4.3565    1.8557 H   0  0  0  0  0  0  0  0  0  0  0  0
    4.0021    6.1600    4.1295 H   0  0  0  0  0  0  0  0  0  0  0  0
    3.4435    4.4793    3.7623 H   0  0  0  0  0  0  0  0  0  0  0  0
    7.4085    3.4911    2.2309 H   0  0  0  0  0  0  0  0  0  0  0  0
    7.9711    5.1702    2.5990 H   0  0  0  0  0  0  0  0  0  0  0  0
    2.7197    5.2181    1.4799 H   0  0  0  0  0  0  0  0  0  0  0  0
    3.2770    6.8992    1.8471 H   0  0  0  0  0  0  0  0  0  0  0  0
    8.1306    2.7487    4.5127 H   0  0  0  0  0  0  0  0  0  0  0  0
    8.6945    4.4274    4.8806 H   0  0  0  0  0  0  0  0  0  0  0  0
    1.6540    7.0206    3.7530 H   0  0  0  0  0  0  0  0  0  0  0  0
    1.0979    5.3390    3.3863 H   0  0  0  0  0  0  0  0  0  0  0  0
   10.3161    4.3003    2.9740 H   0  0  0  0  0  0  0  0  0  0  0  0
    9.7512    2.6220    2.6056 H   0  0  0  0  0  0  0  0  0  0  0  0
    0.3733    6.0762    1.1036 H   0  0  0  0  0  0  0  0  0  0  0  0
    0.9283    7.7581    1.4704 H   0  0  0  0  0  0  0  0  0  0  0  0
   11.0386    3.5561    5.2554 H   0  0  0  0  0  0  0  0  0  0  0  0
   10.4728    1.8781    4.8871 H   0  0  0  0  0  0  0  0  0  0  0  0
   -0.6949    7.8779    3.3761 H   0  0  0  0  0  0  0  0  0  0  0  0
   -1.2491    6.1956    3.0096 H   0  0  0  0  0  0  0  0  0  0  0  0
   12.0932    1.7500    2.9799 H   0  0  0  0  0  0  0  0  0  0  0  0
   12.6597    3.4277    3.3484 H   0  0  0  0  0  0  0  0  0  0  0  0
   -1.9745    6.9315    0.7268 H   0  0  0  0  0  0  0  0  0  0  0  0
   -1.4210    8.6140    1.0932 H   0  0  0  0  0  0  0  0  0  0  0  0
   12.8146    1.0051    5.2612 H   0  0  0  0  0  0  0  0  0  0  0  0
   13.3817    2.6826    5.6297 H   0  0  0  0  0  0  0  0  0  0  0  0
   -3.0444    8.7328    2.9988 H   0  0  0  0  0  0  0  0  0  0  0  0
   -3.5973    7.0500    2.6326 H   0  0  0  0  0  0  0  0  0  0  0  0
   14.4352    0.8759    3.3541 H   0  0  0  0  0  0  0  0  0  0  0  0
   15.0027    2.5534    3.7227 H   0  0  0  0  0  0  0  0  0  0  0  0
   -3.7709    9.4682    0.7158 H   0  0  0  0  0  0  0  0  0  0  0  0
   -4.3235    7.7853    0.3496 H   0  0  0  0  0  0  0  0  0  0  0  0
   15.7306    1.8047    6.0052 H   0  0  0  0  0  0  0  0  0  0  0  0
   15.1634    0.1287    5.6369 H   0  0  0  0  0  0  0  0  0  0  0  0
   -5.4011    9.5881    2.6206 H   0  0  0  0  0  0  0  0  0  0  0  0
   -5.9531    7.9065    2.2548 H   0  0  0  0  0  0  0  0  0  0  0  0
   16.7961   -0.0100    3.7441 H   0  0  0  0  0  0  0  0  0  0  0  0
   17.3645    1.6694    4.1131 H   0  0  0  0  0  0  0  0  0  0  0  0
   17.6158    0.3444    5.3124 H   0  0  0  0  0  0  0  0  0  0  0  0
   -6.6980    8.6436   -0.0189 H   0  0  0  0  0  0  0  0  0  0  0  0
   -6.1450   10.3286    0.3477 H   0  0  0  0  0  0  0  0  0  0  0  0
   -7.4977    9.5944    1.2900 H   0  0  0  0  0  0  0  0  0  0  0  0
  1  2  1  0  0  0  0
  1  4  1  0  0  0  0
  1 22  1  0  0  0  0
  1 23  1  0  0  0  0
  2  3  1  0  0  0  0
  2 24  1  0  0  0  0
  2 25  1  0  0  0  0
  3  5  1  0  0  0  0
  3 26  1  0  0  0  0
  3 27  1  0  0  0  0
  4  6  1  0  0  0  0
  4 28  1  0  0  0  0
  4 29  1  0  0  0  0
  5  7  1  0  0  0  0
  5 30  1  0  0  0  0
  5 31  1  0  0  0  0
  6  8  1  0  0  0  0
  6 32  1  0  0  0  0
  6 33  1  0  0  0  0
  7  9  1  0  0  0  0
  7 34  1  0  0  0  0
  7 35  1  0  0  0  0
  8 10  1  0  0  0  0
  8 36  1  0  0  0  0
  8 37  1  0  0  0  0
  9 11  1  0  0  0  0
  9 38  1  0  0  0  0
  9 39  1  0  0  0  0
 10 12  1  0  0  0  0
 10 40  1  0  0  0  0
 10 41  1  0  0  0  0
 11 13  1  0  0  0  0
 11 42  1  0  0  0  0
 11 43  1  0  0  0  0
 12 14  1  0  0  0  0
 12 44  1  0  0  0  0
 12 45  1  0  0  0  0
 13 15  1  0  0  0  0
 13 46  1  0  0  0  0
 13 47  1  0  0  0  0
 14 16  1  0  0  0  0
 14 48  1  0  0  0  0
 14 49  1  0  0  0  0
 15 17  1  0  0  0  0
 15 50  1  0  0  0  0
 15 51  1  0  0  0  0
 16 18  1  0  0  0  0
 16 52  1  0  0  0  0
 16 53  1  0  0  0  0
 17 19  1  0  0  0  0
 17 54  1  0  0  0  0
 17 55  1  0  0  0  0
 18 20  1  0  0  0  0
 18 56  1  0  0  0  0
 18 57  1  0  0  0  0
 19 21  1  0  0  0  0
 19 58  1  0  0  0  0
 19 59  1  0  0  0  0
 20 60  1  0  0  0  0
 20 61  1  0  0  0  0
 20 62  1  0  0  0  0
 21 63  1  0  0  0  0
 21 64  1  0  0  0  0
 21 65  1  0  0  0  0
M  END
