
 OpenBabel06061913513D

 44 43  0  0  0  0  0  0  0  0999 V2000
    5.6056    1.0694   -0.4235 C   0  0  0  0  0  0  0  0  0  0  0  0
    6.8735    0.2493   -0.1572 C   0  0  0  0  0  0  0  0  0  0  0  0
    5.8898    2.5723   -0.3166 C   0  0  0  0  0  0  0  0  0  0  0  0
    6.5894   -1.2537   -0.2646 C   0  0  0  0  0  0  0  0  0  0  0  0
    4.6219    3.3925   -0.5830 C   0  0  0  0  0  0  0  0  0  0  0  0
    7.8574   -2.0737    0.0017 C   0  0  0  0  0  0  0  0  0  0  0  0
    4.9061    4.8955   -0.4766 C   0  0  0  0  0  0  0  0  0  0  0  0
    7.5736   -3.5766   -0.1061 C   0  0  0  0  0  0  0  0  0  0  0  0
    3.6376    5.7147   -0.7415 C   0  0  0  0  0  0  0  0  0  0  0  0
    8.8416   -4.3966    0.1600 C   0  0  0  0  0  0  0  0  0  0  0  0
    3.9133    7.1866   -0.6322 C   0  0  0  0  0  0  0  0  0  0  0  0
    8.5580   -5.8995    0.0519 C   0  0  0  0  0  0  0  0  0  0  0  0
    9.8262   -6.7187    0.3180 C   0  0  0  0  0  0  0  0  0  0  0  0
    9.5480   -8.2152    0.2112 C   0  0  0  0  0  0  0  0  0  0  0  0
    5.2276    0.8393   -1.4442 H   0  0  0  0  0  0  0  0  0  0  0  0
    4.8253    0.7898    0.3185 H   0  0  0  0  0  0  0  0  0  0  0  0
    7.2514    0.4792    0.8636 H   0  0  0  0  0  0  0  0  0  0  0  0
    7.6539    0.5290   -0.8991 H   0  0  0  0  0  0  0  0  0  0  0  0
    6.2679    2.8025    0.7040 H   0  0  0  0  0  0  0  0  0  0  0  0
    6.6701    2.8517   -1.0587 H   0  0  0  0  0  0  0  0  0  0  0  0
    6.2115   -1.4835   -1.2853 H   0  0  0  0  0  0  0  0  0  0  0  0
    5.8091   -1.5335    0.4773 H   0  0  0  0  0  0  0  0  0  0  0  0
    4.2437    3.1623   -1.6036 H   0  0  0  0  0  0  0  0  0  0  0  0
    3.8417    3.1130    0.1592 H   0  0  0  0  0  0  0  0  0  0  0  0
    8.2353   -1.8440    1.0225 H   0  0  0  0  0  0  0  0  0  0  0  0
    8.6378   -1.7937   -0.7401 H   0  0  0  0  0  0  0  0  0  0  0  0
    5.2839    5.1271    0.5441 H   0  0  0  0  0  0  0  0  0  0  0  0
    5.6871    5.1729   -1.2190 H   0  0  0  0  0  0  0  0  0  0  0  0
    7.1957   -3.8063   -1.1270 H   0  0  0  0  0  0  0  0  0  0  0  0
    6.7932   -3.8567    0.6356 H   0  0  0  0  0  0  0  0  0  0  0  0
    3.2513    5.4966   -1.7607 H   0  0  0  0  0  0  0  0  0  0  0  0
    2.8580    5.4332   -0.0002 H   0  0  0  0  0  0  0  0  0  0  0  0
    9.2194   -4.1671    1.1809 H   0  0  0  0  0  0  0  0  0  0  0  0
    9.6220   -4.1164   -0.5817 H   0  0  0  0  0  0  0  0  0  0  0  0
    8.1804   -6.1293   -0.9691 H   0  0  0  0  0  0  0  0  0  0  0  0
    7.7777   -6.1801    0.7936 H   0  0  0  0  0  0  0  0  0  0  0  0
   10.2072   -6.4967    1.3387 H   0  0  0  0  0  0  0  0  0  0  0  0
   10.6096   -6.4459   -0.4225 H   0  0  0  0  0  0  0  0  0  0  0  0
   10.4820   -8.7825    0.4082 H   0  0  0  0  0  0  0  0  0  0  0  0
    9.1861   -8.4690   -0.8080 H   0  0  0  0  0  0  0  0  0  0  0  0
    8.7829   -8.5199    0.9567 H   0  0  0  0  0  0  0  0  0  0  0  0
    4.7202    7.7166   -1.3820 O   0  0  0  0  0  0  0  0  0  0  0  0
    3.2605    7.9261    0.2894 O   0  0  0  0  0  0  0  0  0  0  0  0
    3.4217    8.8767    0.3736 H   0  0  0  0  0  0  0  0  0  0  0  0
  1  2  1  0  0  0  0
  1  3  1  0  0  0  0
  1 15  1  0  0  0  0
  1 16  1  0  0  0  0
  2  4  1  0  0  0  0
  2 17  1  0  0  0  0
  2 18  1  0  0  0  0
  3  5  1  0  0  0  0
  3 19  1  0  0  0  0
  3 20  1  0  0  0  0
  4  6  1  0  0  0  0
  4 21  1  0  0  0  0
  4 22  1  0  0  0  0
  5  7  1  0  0  0  0
  5 23  1  0  0  0  0
  5 24  1  0  0  0  0
  6  8  1  0  0  0  0
  6 25  1  0  0  0  0
  6 26  1  0  0  0  0
  7  9  1  0  0  0  0
  7 27  1  0  0  0  0
  7 28  1  0  0  0  0
  8 10  1  0  0  0  0
  8 29  1  0  0  0  0
  8 30  1  0  0  0  0
  9 11  1  0  0  0  0
  9 31  1  0  0  0  0
  9 32  1  0  0  0  0
 10 12  1  0  0  0  0
 10 33  1  0  0  0  0
 10 34  1  0  0  0  0
 11 42  2  0  0  0  0
 11 43  1  0  0  0  0
 12 13  1  0  0  0  0
 12 35  1  0  0  0  0
 12 36  1  0  0  0  0
 13 14  1  0  0  0  0
 13 37  1  0  0  0  0
 13 38  1  0  0  0  0
 14 39  1  0  0  0  0
 14 40  1  0  0  0  0
 14 41  1  0  0  0  0
 43 44  1  0  0  0  0
M  END
