  N-MYRISTIC ACID.mol	544-63-8
  NIST    06271314093D 1   1.00000  -700.84633
Copyright by the U.S. Sec. Commerce on behalf of U.S.A. All rights reserved.
 44 43  0  0  0  0  0  0  0  0999 V2000
    5.1327    1.4264    0.0895 C    0  0  0  0  0  0  0  0  0  0  0  0
    6.4497    0.6399    0.0502 C    0  0  0  0  0  0  0  0  0  0  0  0
    5.3376    2.9476    0.1194 C    0  0  0  0  0  0  0  0  0  0  0  0
    6.2546   -0.8813    0.0212 C    0  0  0  0  0  0  0  0  0  0  0  0
    4.0408    3.7738    0.0939 C    0  0  0  0  0  0  0  0  0  0  0  0
    7.5710   -1.6687   -0.0114 C    0  0  0  0  0  0  0  0  0  0  0  0
    3.1698    3.6249    1.3490 C    0  0  0  0  0  0  0  0  0  0  0  0
    7.3753   -3.1900   -0.0356 C    0  0  0  0  0  0  0  0  0  0  0  0
    1.9242    4.5120    1.3038 C    0  0  0  0  0  0  0  0  0  0  0  0
    8.6912   -3.9784   -0.0626 C    0  0  0  0  0  0  0  0  0  0  0  0
    1.0518    4.3756    2.5327 C    0  0  0  0  0  0  0  0  0  0  0  0
    8.4951   -5.4996   -0.0814 C    0  0  0  0  0  0  0  0  0  0  0  0
   -0.0338    5.1902    2.4652 O    0  0  0  0  0  0  0  0  0  0  0  0
    1.2553    3.6464    3.4782 O    0  0  0  0  0  0  0  0  0  0  0  0
    9.8104   -6.2889   -0.1053 C    0  0  0  0  0  0  0  0  0  0  0  0
    9.6058   -7.8072   -0.1199 C    0  0  0  0  0  0  0  0  0  0  0  0
    4.5249    1.1617   -0.7890 H    0  0  0  0  0  0  0  0  0  0  0  0
    4.5536    1.1085    0.9674 H    0  0  0  0  0  0  0  0  0  0  0  0
    7.0593    0.9104    0.9252 H    0  0  0  0  0  0  0  0  0  0  0  0
    7.0316    0.9487   -0.8312 H    0  0  0  0  0  0  0  0  0  0  0  0
    5.9209    3.2186    1.0119 H    0  0  0  0  0  0  0  0  0  0  0  0
    5.9534    3.2370   -0.7439 H    0  0  0  0  0  0  0  0  0  0  0  0
    5.6472   -1.1528   -0.8552 H    0  0  0  0  0  0  0  0  0  0  0  0
    5.6701   -1.1885    0.9012 H    0  0  0  0  0  0  0  0  0  0  0  0
    4.3018    4.8343   -0.0339 H    0  0  0  0  0  0  0  0  0  0  0  0
    3.4530    3.4980   -0.7948 H    0  0  0  0  0  0  0  0  0  0  0  0
    8.1788   -1.3952    0.8640 H    0  0  0  0  0  0  0  0  0  0  0  0
    8.1553   -1.3637   -0.8925 H    0  0  0  0  0  0  0  0  0  0  0  0
    2.8561    2.5834    1.4810 H    0  0  0  0  0  0  0  0  0  0  0  0
    3.7575    3.8767    2.2411 H    0  0  0  0  0  0  0  0  0  0  0  0
    6.7696   -3.4642   -0.9123 H    0  0  0  0  0  0  0  0  0  0  0  0
    6.7886   -3.4937    0.8442 H    0  0  0  0  0  0  0  0  0  0  0  0
    2.1915    5.5723    1.1990 H    0  0  0  0  0  0  0  0  0  0  0  0
    1.3030    4.2815    0.4274 H    0  0  0  0  0  0  0  0  0  0  0  0
    9.2977   -3.7020    0.8129 H    0  0  0  0  0  0  0  0  0  0  0  0
    9.2773   -3.6771   -0.9438 H    0  0  0  0  0  0  0  0  0  0  0  0
    7.8901   -5.7778   -0.9574 H    0  0  0  0  0  0  0  0  0  0  0  0
    7.9083   -5.8012    0.7993 H    0  0  0  0  0  0  0  0  0  0  0  0
   -0.5340    5.0366    3.2888 H    0  0  0  0  0  0  0  0  0  0  0  0
   10.4157   -6.0100    0.7692 H    0  0  0  0  0  0  0  0  0  0  0  0
   10.3960   -5.9902   -0.9866 H    0  0  0  0  0  0  0  0  0  0  0  0
   10.5633   -8.3403   -0.1368 H    0  0  0  0  0  0  0  0  0  0  0  0
    9.0339   -8.1220   -1.0016 H    0  0  0  0  0  0  0  0  0  0  0  0
    9.0542   -8.1415    0.7675 H    0  0  0  0  0  0  0  0  0  0  0  0
  1  2  1  0
  1  3  1  0
  2  4  1  0
  3  5  1  0
  4  6  1  0
  5  7  1  0
  6  8  1  0
  7  9  1  0
  8 10  1  0
  9 11  1  0
 10 12  1  0
 11 13  1  0
 11 14  2  0
 12 15  1  0
 15 16  1  0
  1 17  1  0
  1 18  1  0
  2 19  1  0
  2 20  1  0
  3 21  1  0
  3 22  1  0
  4 23  1  0
  4 24  1  0
  5 25  1  0
  5 26  1  0
  6 27  1  0
  6 28  1  0
  7 29  1  0
  7 30  1  0
  8 31  1  0
  8 32  1  0
  9 33  1  0
  9 34  1  0
 10 35  1  0
 10 36  1  0
 12 37  1  0
 12 38  1  0
 13 39  1  0
 15 40  1  0
 15 41  1  0
 16 42  1  0
 16 43  1  0
 16 44  1  0
M  END
