  N-NONYLCYCLOPENTANE.mol	2882-98-6
  NIST    07061516153D 1   1.00000  -550.37757
Copyright by the U.S. Sec. Commerce on behalf of U.S.A. All rights reserved.
 42 42  0  0  0  0  0  0  0  0999 V2000
    0.2914    1.0544    5.4873 C    0  0  0  0  0  0  0  0  0  0  0  0
    0.7268    1.5987    6.8786 C    0  0  0  0  0  0  0  0  0  0  0  0
    1.1093    1.8672    4.4679 C    0  0  0  0  0  0  0  0  0  0  0  0
    1.4768    2.9325    6.5998 C    0  0  0  0  0  0  0  0  0  0  0  0
    1.1993    3.2629    5.1150 C    0  0  0  0  0  0  0  0  0  0  0  0
    2.1541    4.2737    4.4530 C    0  0  0  0  0  0  0  0  0  0  0  0
    3.6280    3.8583    4.3281 C    0  0  0  0  0  0  0  0  0  0  0  0
    6.8322    5.6436    2.8893 C    0  0  0  0  0  0  0  0  0  0  0  0
    5.9725    4.5506    3.5405 C    0  0  0  0  0  0  0  0  0  0  0  0
    8.3336    5.3213    2.8039 C    0  0  0  0  0  0  0  0  0  0  0  0
    4.4969    4.9468    3.6822 C    0  0  0  0  0  0  0  0  0  0  0  0
   10.5601    2.7457    0.8313 C    0  0  0  0  0  0  0  0  0  0  0  0
   10.2027    3.9116    1.7588 C    0  0  0  0  0  0  0  0  0  0  0  0
    8.6918    4.1531    1.8745 C    0  0  0  0  0  0  0  0  0  0  0  0
    0.4435   -0.0261    5.3904 H    0  0  0  0  0  0  0  0  0  0  0  0
   -0.7785    1.2395    5.3291 H    0  0  0  0  0  0  0  0  0  0  0  0
    1.3795    0.8868    7.3957 H    0  0  0  0  0  0  0  0  0  0  0  0
   -0.1414    1.7517    7.5289 H    0  0  0  0  0  0  0  0  0  0  0  0
    2.1133    1.4346    4.3627 H    0  0  0  0  0  0  0  0  0  0  0  0
    0.6562    1.8862    3.4694 H    0  0  0  0  0  0  0  0  0  0  0  0
    1.1610    3.7429    7.2668 H    0  0  0  0  0  0  0  0  0  0  0  0
    2.5534    2.7964    6.7581 H    0  0  0  0  0  0  0  0  0  0  0  0
    0.1907    3.7030    5.0622 H    0  0  0  0  0  0  0  0  0  0  0  0
    2.1014    5.2189    5.0138 H    0  0  0  0  0  0  0  0  0  0  0  0
    1.7713    4.5039    3.4477 H    0  0  0  0  0  0  0  0  0  0  0  0
    4.0389    3.6170    5.3183 H    0  0  0  0  0  0  0  0  0  0  0  0
    3.7089    2.9392    3.7317 H    0  0  0  0  0  0  0  0  0  0  0  0
    6.7053    6.5755    3.4587 H    0  0  0  0  0  0  0  0  0  0  0  0
    6.4490    5.8524    1.8791 H    0  0  0  0  0  0  0  0  0  0  0  0
    6.3818    4.3140    4.5344 H    0  0  0  0  0  0  0  0  0  0  0  0
    6.0385    3.6228    2.9557 H    0  0  0  0  0  0  0  0  0  0  0  0
    8.7168    5.1116    3.8139 H    0  0  0  0  0  0  0  0  0  0  0  0
    8.8662    6.2195    2.4597 H    0  0  0  0  0  0  0  0  0  0  0  0
    4.0907    5.1935    2.6897 H    0  0  0  0  0  0  0  0  0  0  0  0
    4.4242    5.8701    4.2762 H    0  0  0  0  0  0  0  0  0  0  0  0
   10.1911    2.9214   -0.1868 H    0  0  0  0  0  0  0  0  0  0  0  0
   11.6447    2.5988    0.7712 H    0  0  0  0  0  0  0  0  0  0  0  0
   10.1161    1.8069    1.1852 H    0  0  0  0  0  0  0  0  0  0  0  0
   10.6895    4.8291    1.3980 H    0  0  0  0  0  0  0  0  0  0  0  0
   10.6163    3.7229    2.7599 H    0  0  0  0  0  0  0  0  0  0  0  0
    8.2106    3.2306    2.2276 H    0  0  0  0  0  0  0  0  0  0  0  0
    8.2786    4.3477    0.8730 H    0  0  0  0  0  0  0  0  0  0  0  0
  1 15  1  0  0  0  0
  1 16  1  0  0  0  0
  2  1  1  0  0  0  0
  2 17  1  0  0  0  0
  2 18  1  0  0  0  0
  3  1  1  0  0  0  0
  3 19  1  0  0  0  0
  3 20  1  0  0  0  0
  4  2  1  0  0  0  0
  4 21  1  0  0  0  0
  4 22  1  0  0  0  0
  5  3  1  0  0  0  0
  5  4  1  0  0  0  0
  5  6  1  0  0  0  0
  5 23  1  0  0  0  0
  6  7  1  0  0  0  0
  6 24  1  0  0  0  0
  6 25  1  0  0  0  0
  7 11  1  0  0  0  0
  7 26  1  0  0  0  0
  7 27  1  0  0  0  0
  8  9  1  0  0  0  0
  8 10  1  0  0  0  0
  8 28  1  0  0  0  0
  8 29  1  0  0  0  0
  9 11  1  0  0  0  0
  9 30  1  0  0  0  0
  9 31  1  0  0  0  0
 10 14  1  0  0  0  0
 10 32  1  0  0  0  0
 10 33  1  0  0  0  0
 11 34  1  0  0  0  0
 11 35  1  0  0  0  0
 12 13  1  0  0  0  0
 12 36  1  0  0  0  0
 12 37  1  0  0  0  0
 12 38  1  0  0  0  0
 13 14  1  0  0  0  0
 13 39  1  0  0  0  0
 13 40  1  0  0  0  0
 14 41  1  0  0  0  0
 14 42  1  0  0  0  0
M  END
