
 OpenBabel11251910123D

 59 58  0  0  0  0  0  0  0  0999 V2000
    8.4667    0.4032    3.3619 C   0  0  0  0  0  0  0  0  0  0  0  0
    7.7031    0.9958    4.5522 C   0  0  0  0  0  0  0  0  0  0  0  0
    6.1982    1.0576    4.2648 C   0  0  0  0  0  0  0  0  0  0  0  0
    9.9715    0.3409    3.6495 C   0  0  0  0  0  0  0  0  0  0  0  0
    5.4344    1.6498    5.4552 C   0  0  0  0  0  0  0  0  0  0  0  0
   10.7350   -0.2521    2.4593 C   0  0  0  0  0  0  0  0  0  0  0  0
    3.9295    1.7111    5.1679 C   0  0  0  0  0  0  0  0  0  0  0  0
   12.2398   -0.3148    2.7470 C   0  0  0  0  0  0  0  0  0  0  0  0
    3.1657    2.3028    6.3585 C   0  0  0  0  0  0  0  0  0  0  0  0
   13.0032   -0.9082    1.5570 C   0  0  0  0  0  0  0  0  0  0  0  0
    1.6607    2.3638    6.0713 C   0  0  0  0  0  0  0  0  0  0  0  0
   14.5080   -0.9712    1.8446 C   0  0  0  0  0  0  0  0  0  0  0  0
    0.8968    2.9553    7.2620 C   0  0  0  0  0  0  0  0  0  0  0  0
   15.2714   -1.5648    0.6548 C   0  0  0  0  0  0  0  0  0  0  0  0
   -0.6082    3.0160    6.9749 C   0  0  0  0  0  0  0  0  0  0  0  0
   16.7758   -1.6277    0.9431 C   0  0  0  0  0  0  0  0  0  0  0  0
   -1.3714    3.6073    8.1657 C   0  0  0  0  0  0  0  0  0  0  0  0
   17.5391   -2.2181   -0.2390 C   0  0  0  0  0  0  0  0  0  0  0  0
   -2.8698    3.6694    7.8838 C   0  0  0  0  0  0  0  0  0  0  0  0
    8.2908    1.0338    2.4625 H   0  0  0  0  0  0  0  0  0  0  0  0
    8.0894   -0.6234    3.1585 H   0  0  0  0  0  0  0  0  0  0  0  0
    8.0802    2.0225    4.7556 H   0  0  0  0  0  0  0  0  0  0  0  0
    7.8791    0.3652    5.4516 H   0  0  0  0  0  0  0  0  0  0  0  0
    5.8212    0.0309    4.0613 H   0  0  0  0  0  0  0  0  0  0  0  0
    6.0220    1.6883    3.3655 H   0  0  0  0  0  0  0  0  0  0  0  0
   10.1473   -0.2896    4.5490 H   0  0  0  0  0  0  0  0  0  0  0  0
   10.3490    1.3675    3.8528 H   0  0  0  0  0  0  0  0  0  0  0  0
    5.6108    1.0190    6.3545 H   0  0  0  0  0  0  0  0  0  0  0  0
    5.8112    2.6765    5.6588 H   0  0  0  0  0  0  0  0  0  0  0  0
   10.3574   -1.2786    2.2561 H   0  0  0  0  0  0  0  0  0  0  0  0
   10.5594    0.3784    1.5598 H   0  0  0  0  0  0  0  0  0  0  0  0
    3.7531    2.3418    4.2687 H   0  0  0  0  0  0  0  0  0  0  0  0
    3.5529    0.6843    4.9643 H   0  0  0  0  0  0  0  0  0  0  0  0
   12.6175    0.7117    2.9502 H   0  0  0  0  0  0  0  0  0  0  0  0
   12.4153   -0.9453    3.6466 H   0  0  0  0  0  0  0  0  0  0  0  0
    3.3422    1.6720    7.2577 H   0  0  0  0  0  0  0  0  0  0  0  0
    3.5422    3.3297    6.5622 H   0  0  0  0  0  0  0  0  0  0  0  0
   12.8278   -0.2778    0.6573 H   0  0  0  0  0  0  0  0  0  0  0  0
   12.6253   -1.9347    1.3538 H   0  0  0  0  0  0  0  0  0  0  0  0
    1.2843    1.3369    5.8675 H   0  0  0  0  0  0  0  0  0  0  0  0
    1.4841    2.9946    5.1721 H   0  0  0  0  0  0  0  0  0  0  0  0
   14.8860    0.0552    2.0478 H   0  0  0  0  0  0  0  0  0  0  0  0
   14.6834   -1.6017    2.7443 H   0  0  0  0  0  0  0  0  0  0  0  0
    1.0735    2.3244    8.1611 H   0  0  0  0  0  0  0  0  0  0  0  0
    1.2731    3.9822    7.4657 H   0  0  0  0  0  0  0  0  0  0  0  0
   15.0964   -0.9344   -0.2451 H   0  0  0  0  0  0  0  0  0  0  0  0
   14.8937   -2.5914    0.4516 H   0  0  0  0  0  0  0  0  0  0  0  0
   -0.7852    3.6470    6.0759 H   0  0  0  0  0  0  0  0  0  0  0  0
   -0.9847    1.9892    6.7712 H   0  0  0  0  0  0  0  0  0  0  0  0
   16.9585   -2.2596    1.8396 H   0  0  0  0  0  0  0  0  0  0  0  0
   17.1610   -0.6040    1.1435 H   0  0  0  0  0  0  0  0  0  0  0  0
   -1.0026    4.6357    8.3726 H   0  0  0  0  0  0  0  0  0  0  0  0
   -1.2019    2.9792    9.0674 H   0  0  0  0  0  0  0  0  0  0  0  0
   17.3917   -1.5925   -1.1451 H   0  0  0  0  0  0  0  0  0  0  0  0
   18.6235   -2.2514   -0.0026 H   0  0  0  0  0  0  0  0  0  0  0  0
   17.1887   -3.2514   -0.4476 H   0  0  0  0  0  0  0  0  0  0  0  0
   -3.0700    4.3101    6.9987 H   0  0  0  0  0  0  0  0  0  0  0  0
   -3.2697    2.6503    7.6949 H   0  0  0  0  0  0  0  0  0  0  0  0
   -3.3961    4.1007    8.7613 H   0  0  0  0  0  0  0  0  0  0  0  0
  1  2  1  0  0  0  0
  1  4  1  0  0  0  0
  1 20  1  0  0  0  0
  1 21  1  0  0  0  0
  2  3  1  0  0  0  0
  2 22  1  0  0  0  0
  2 23  1  0  0  0  0
  3  5  1  0  0  0  0
  3 24  1  0  0  0  0
  3 25  1  0  0  0  0
  4  6  1  0  0  0  0
  4 26  1  0  0  0  0
  4 27  1  0  0  0  0
  5  7  1  0  0  0  0
  5 28  1  0  0  0  0
  5 29  1  0  0  0  0
  6  8  1  0  0  0  0
  6 30  1  0  0  0  0
  6 31  1  0  0  0  0
  7  9  1  0  0  0  0
  7 32  1  0  0  0  0
  7 33  1  0  0  0  0
  8 10  1  0  0  0  0
  8 34  1  0  0  0  0
  8 35  1  0  0  0  0
  9 11  1  0  0  0  0
  9 36  1  0  0  0  0
  9 37  1  0  0  0  0
 10 12  1  0  0  0  0
 10 38  1  0  0  0  0
 10 39  1  0  0  0  0
 11 13  1  0  0  0  0
 11 40  1  0  0  0  0
 11 41  1  0  0  0  0
 12 14  1  0  0  0  0
 12 42  1  0  0  0  0
 12 43  1  0  0  0  0
 13 15  1  0  0  0  0
 13 44  1  0  0  0  0
 13 45  1  0  0  0  0
 14 16  1  0  0  0  0
 14 46  1  0  0  0  0
 14 47  1  0  0  0  0
 15 17  1  0  0  0  0
 15 48  1  0  0  0  0
 15 49  1  0  0  0  0
 16 18  1  0  0  0  0
 16 50  1  0  0  0  0
 16 51  1  0  0  0  0
 17 19  1  0  0  0  0
 17 52  1  0  0  0  0
 17 53  1  0  0  0  0
 18 54  1  0  0  0  0
 18 55  1  0  0  0  0
 18 56  1  0  0  0  0
 19 57  1  0  0  0  0
 19 58  1  0  0  0  0
 19 59  1  0  0  0  0
M  END
