
 OpenBabel11271910243D

 56 55  0  0  0  0  0  0  0  0999 V2000
    8.0706    4.2002   -0.4521 C   0  0  0  0  0  0  0  0  0  0  0  0
    7.0648    3.7656    0.6205 C   0  0  0  0  0  0  0  0  0  0  0  0
    5.7920    3.1962   -0.0172 C   0  0  0  0  0  0  0  0  0  0  0  0
    9.3436    4.7694    0.1856 C   0  0  0  0  0  0  0  0  0  0  0  0
    4.7862    2.7614    1.0554 C   0  0  0  0  0  0  0  0  0  0  0  0
   10.3495    5.2039   -0.8869 C   0  0  0  0  0  0  0  0  0  0  0  0
    3.5134    2.1918    0.4178 C   0  0  0  0  0  0  0  0  0  0  0  0
   11.6224    5.7730   -0.2491 C   0  0  0  0  0  0  0  0  0  0  0  0
    2.5078    1.7569    1.4904 C   0  0  0  0  0  0  0  0  0  0  0  0
   12.6285    6.2074   -1.3217 C   0  0  0  0  0  0  0  0  0  0  0  0
    1.2349    1.1873    0.8528 C   0  0  0  0  0  0  0  0  0  0  0  0
   13.9015    6.7764   -0.6838 C   0  0  0  0  0  0  0  0  0  0  0  0
    0.2293    0.7523    1.9254 C   0  0  0  0  0  0  0  0  0  0  0  0
   14.9076    7.2108   -1.7563 C   0  0  0  0  0  0  0  0  0  0  0  0
   -1.0429    0.1829    1.2873 C   0  0  0  0  0  0  0  0  0  0  0  0
   16.1800    7.7795   -1.1179 C   0  0  0  0  0  0  0  0  0  0  0  0
   -2.0464   -0.2513    2.3518 C   0  0  0  0  0  0  0  0  0  0  0  0
   17.1840    8.2129   -2.1822 C   0  0  0  0  0  0  0  0  0  0  0  0
    8.3368    3.3229   -1.0824 H   0  0  0  0  0  0  0  0  0  0  0  0
    7.6051    4.9770   -1.0983 H   0  0  0  0  0  0  0  0  0  0  0  0
    7.5304    2.9888    1.2667 H   0  0  0  0  0  0  0  0  0  0  0  0
    6.7986    4.6428    1.2507 H   0  0  0  0  0  0  0  0  0  0  0  0
    6.0582    2.3190   -0.6475 H   0  0  0  0  0  0  0  0  0  0  0  0
    5.3263    3.9729   -0.6634 H   0  0  0  0  0  0  0  0  0  0  0  0
    9.0774    5.6467    0.8159 H   0  0  0  0  0  0  0  0  0  0  0  0
    9.8090    3.9926    0.8319 H   0  0  0  0  0  0  0  0  0  0  0  0
    4.5199    3.6386    1.6857 H   0  0  0  0  0  0  0  0  0  0  0  0
    5.2519    1.9847    1.7016 H   0  0  0  0  0  0  0  0  0  0  0  0
   10.6156    4.3266   -1.5171 H   0  0  0  0  0  0  0  0  0  0  0  0
    9.8841    5.9808   -1.5331 H   0  0  0  0  0  0  0  0  0  0  0  0
    3.7798    1.3147   -0.2125 H   0  0  0  0  0  0  0  0  0  0  0  0
    3.0477    2.9685   -0.2284 H   0  0  0  0  0  0  0  0  0  0  0  0
   12.0878    4.9962    0.3971 H   0  0  0  0  0  0  0  0  0  0  0  0
   11.3564    6.6503    0.3811 H   0  0  0  0  0  0  0  0  0  0  0  0
    2.9736    0.9803    2.1366 H   0  0  0  0  0  0  0  0  0  0  0  0
    2.2414    2.6341    2.1207 H   0  0  0  0  0  0  0  0  0  0  0  0
   12.8945    5.3301   -1.9519 H   0  0  0  0  0  0  0  0  0  0  0  0
   12.1632    6.9843   -1.9679 H   0  0  0  0  0  0  0  0  0  0  0  0
    1.5013    0.3101    0.2225 H   0  0  0  0  0  0  0  0  0  0  0  0
    0.7691    1.9639    0.2067 H   0  0  0  0  0  0  0  0  0  0  0  0
   13.6355    7.6538   -0.0536 H   0  0  0  0  0  0  0  0  0  0  0  0
   14.3668    5.9996   -0.0376 H   0  0  0  0  0  0  0  0  0  0  0  0
   -0.0374    1.6294    2.5558 H   0  0  0  0  0  0  0  0  0  0  0  0
    0.6949   -0.0245    2.5716 H   0  0  0  0  0  0  0  0  0  0  0  0
   14.4426    7.9878   -2.4026 H   0  0  0  0  0  0  0  0  0  0  0  0
   15.1739    6.3335   -2.3865 H   0  0  0  0  0  0  0  0  0  0  0  0
   -0.7842   -0.6969    0.6585 H   0  0  0  0  0  0  0  0  0  0  0  0
   -1.5159    0.9556    0.6427 H   0  0  0  0  0  0  0  0  0  0  0  0
   15.9217    8.6594   -0.4892 H   0  0  0  0  0  0  0  0  0  0  0  0
   16.6523    7.0065   -0.4731 H   0  0  0  0  0  0  0  0  0  0  0  0
   -2.9558   -0.6587    1.8620 H   0  0  0  0  0  0  0  0  0  0  0  0
   -1.6066   -1.0407    2.9980 H   0  0  0  0  0  0  0  0  0  0  0  0
   -2.3398    0.6151    2.9821 H   0  0  0  0  0  0  0  0  0  0  0  0
   17.4770    7.3463   -2.8124 H   0  0  0  0  0  0  0  0  0  0  0  0
   16.7448    9.0025   -2.8285 H   0  0  0  0  0  0  0  0  0  0  0  0
   18.0936    8.6198   -1.6922 H   0  0  0  0  0  0  0  0  0  0  0  0
  1  2  1  0  0  0  0
  1  4  1  0  0  0  0
  1 19  1  0  0  0  0
  1 20  1  0  0  0  0
  2  3  1  0  0  0  0
  2 21  1  0  0  0  0
  2 22  1  0  0  0  0
  3  5  1  0  0  0  0
  3 23  1  0  0  0  0
  3 24  1  0  0  0  0
  4  6  1  0  0  0  0
  4 25  1  0  0  0  0
  4 26  1  0  0  0  0
  5  7  1  0  0  0  0
  5 27  1  0  0  0  0
  5 28  1  0  0  0  0
  6  8  1  0  0  0  0
  6 29  1  0  0  0  0
  6 30  1  0  0  0  0
  7  9  1  0  0  0  0
  7 31  1  0  0  0  0
  7 32  1  0  0  0  0
  8 10  1  0  0  0  0
  8 33  1  0  0  0  0
  8 34  1  0  0  0  0
  9 11  1  0  0  0  0
  9 35  1  0  0  0  0
  9 36  1  0  0  0  0
 10 12  1  0  0  0  0
 10 37  1  0  0  0  0
 10 38  1  0  0  0  0
 11 13  1  0  0  0  0
 11 39  1  0  0  0  0
 11 40  1  0  0  0  0
 12 14  1  0  0  0  0
 12 41  1  0  0  0  0
 12 42  1  0  0  0  0
 13 15  1  0  0  0  0
 13 43  1  0  0  0  0
 13 44  1  0  0  0  0
 14 16  1  0  0  0  0
 14 45  1  0  0  0  0
 14 46  1  0  0  0  0
 15 17  1  0  0  0  0
 15 47  1  0  0  0  0
 15 48  1  0  0  0  0
 16 18  1  0  0  0  0
 16 49  1  0  0  0  0
 16 50  1  0  0  0  0
 17 51  1  0  0  0  0
 17 52  1  0  0  0  0
 17 53  1  0  0  0  0
 18 54  1  0  0  0  0
 18 55  1  0  0  0  0
 18 56  1  0  0  0  0
M  END
