  N-OCTYL ACETATE.mol	112-14-1
  NIST    07011506223D 1   1.00000  -543.58967
Copyright by the U.S. Sec. Commerce on behalf of U.S.A. All rights reserved.
 32 31  0  0  0  0  0  0  0  0999 V2000
    8.3749    1.4059    1.2746 C    0  0  0  0  0  0  0  0  0  0  0  0
    7.1034    1.7993    2.0388 C    0  0  0  0  0  0  0  0  0  0  0  0
    9.6087    1.4240    2.1638 C    0  0  0  0  0  0  0  0  0  0  0  0
    5.8462    1.7924    1.1592 C    0  0  0  0  0  0  0  0  0  0  0  0
   10.7393    1.0214    1.3581 O    0  0  0  0  0  0  0  0  0  0  0  0
    4.5685    2.1727    1.9184 C    0  0  0  0  0  0  0  0  0  0  0  0
   11.9334    0.9825    1.9924 C    0  0  0  0  0  0  0  0  0  0  0  0
    3.3107    2.1680    1.0402 C    0  0  0  0  0  0  0  0  0  0  0  0
   13.0280    0.5356    1.0502 C    0  0  0  0  0  0  0  0  0  0  0  0
   12.0831    1.2666    3.1607 O    0  0  0  0  0  0  0  0  0  0  0  0
    2.0314    2.5439    1.7992 C    0  0  0  0  0  0  0  0  0  0  0  0
    0.7804    2.5365    0.9146 C    0  0  0  0  0  0  0  0  0  0  0  0
    8.2588    0.4014    0.8467 H    0  0  0  0  0  0  0  0  0  0  0  0
    8.5323    2.0901    0.4305 H    0  0  0  0  0  0  0  0  0  0  0  0
    7.2335    2.7994    2.4777 H    0  0  0  0  0  0  0  0  0  0  0  0
    6.9576    1.1121    2.8849 H    0  0  0  0  0  0  0  0  0  0  0  0
    9.8023    2.4210    2.5746 H    0  0  0  0  0  0  0  0  0  0  0  0
    9.5122    0.7340    3.0094 H    0  0  0  0  0  0  0  0  0  0  0  0
    5.9893    2.4850    0.3169 H    0  0  0  0  0  0  0  0  0  0  0  0
    5.7212    0.7944    0.7138 H    0  0  0  0  0  0  0  0  0  0  0  0
    4.6952    3.1696    2.3662 H    0  0  0  0  0  0  0  0  0  0  0  0
    4.4263    1.4784    2.7599 H    0  0  0  0  0  0  0  0  0  0  0  0
    3.1850    1.1719    0.5901 H    0  0  0  0  0  0  0  0  0  0  0  0
    3.4512    2.8643    0.1999 H    0  0  0  0  0  0  0  0  0  0  0  0
   12.8231   -0.4792    0.6926 H    0  0  0  0  0  0  0  0  0  0  0  0
   13.9858    0.5560    1.5710 H    0  0  0  0  0  0  0  0  0  0  0  0
   13.0645    1.1892    0.1728 H    0  0  0  0  0  0  0  0  0  0  0  0
    2.1566    3.5394    2.2484 H    0  0  0  0  0  0  0  0  0  0  0  0
    1.8911    1.8478    2.6383 H    0  0  0  0  0  0  0  0  0  0  0  0
    0.8786    3.2462    0.0839 H    0  0  0  0  0  0  0  0  0  0  0  0
   -0.1148    2.8120    1.4838 H    0  0  0  0  0  0  0  0  0  0  0  0
    0.6072    1.5436    0.4814 H    0  0  0  0  0  0  0  0  0  0  0  0
  1  2  1  0  0  0  0
  1  3  1  0  0  0  0
  1 13  1  0  0  0  0
  1 14  1  0  0  0  0
  2  4  1  0  0  0  0
  2 15  1  0  0  0  0
  2 16  1  0  0  0  0
  3  5  1  0  0  0  0
  3 17  1  0  0  0  0
  3 18  1  0  0  0  0
  4  6  1  0  0  0  0
  4 19  1  0  0  0  0
  4 20  1  0  0  0  0
  5  7  1  0  0  0  0
  6  8  1  0  0  0  0
  6 21  1  0  0  0  0
  6 22  1  0  0  0  0
  7  9  1  0  0  0  0
  7 10  2  0  0  0  0
  8 11  1  0  0  0  0
  8 23  1  0  0  0  0
  8 24  1  0  0  0  0
  9 25  1  0  0  0  0
  9 26  1  0  0  0  0
  9 27  1  0  0  0  0
 11 12  1  0  0  0  0
 11 28  1  0  0  0  0
 11 29  1  0  0  0  0
 12 30  1  0  0  0  0
 12 31  1  0  0  0  0
 12 32  1  0  0  0  0
M  END
