  N-PALMITIC ACID.mol	57-10-3
  NIST    06291318383D 1   1.00000  -779.47372
Copyright by the U.S. Sec. Commerce on behalf of U.S.A. All rights reserved.
 50 49  0  0  0  0  0  0  0  0999 V2000
    5.1001    1.4672    0.1020 C    0  0  0  0  0  0  0  0  0  0  0  0
    6.4299    0.7019    0.0728 C    0  0  0  0  0  0  0  0  0  0  0  0
    5.2813    2.9911    0.1435 C    0  0  0  0  0  0  0  0  0  0  0  0
    6.2599   -0.8222    0.0384 C    0  0  0  0  0  0  0  0  0  0  0  0
    3.9729    3.7982    0.1030 C    0  0  0  0  0  0  0  0  0  0  0  0
    7.5895   -1.5876    0.0141 C    0  0  0  0  0  0  0  0  0  0  0  0
    3.0810    3.6223    1.3398 C    0  0  0  0  0  0  0  0  0  0  0  0
    7.4194   -3.1119   -0.0116 C    0  0  0  0  0  0  0  0  0  0  0  0
    1.8255    4.4946    1.2830 C    0  0  0  0  0  0  0  0  0  0  0  0
    8.7485   -3.8783   -0.0312 C    0  0  0  0  0  0  0  0  0  0  0  0
    0.9285    4.3261    2.4899 C    0  0  0  0  0  0  0  0  0  0  0  0
    8.5770   -5.4025   -0.0492 C    0  0  0  0  0  0  0  0  0  0  0  0
   -0.1616    5.1341    2.4164 O    0  0  0  0  0  0  0  0  0  0  0  0
    1.1172    3.5782    3.4238 O    0  0  0  0  0  0  0  0  0  0  0  0
    9.9051   -6.1706   -0.0656 C    0  0  0  0  0  0  0  0  0  0  0  0
    9.7324   -7.6947   -0.0776 C    0  0  0  0  0  0  0  0  0  0  0  0
   11.0594   -8.4643   -0.0923 C    0  0  0  0  0  0  0  0  0  0  0  0
   10.8773   -9.9854   -0.1009 C    0  0  0  0  0  0  0  0  0  0  0  0
    4.5064    1.1983   -0.7849 H    0  0  0  0  0  0  0  0  0  0  0  0
    4.5166    1.1349    0.9714 H    0  0  0  0  0  0  0  0  0  0  0  0
    7.0270    0.9799    0.9540 H    0  0  0  0  0  0  0  0  0  0  0  0
    7.0148    1.0224   -0.8024 H    0  0  0  0  0  0  0  0  0  0  0  0
    5.8470    3.2654    1.0463 H    0  0  0  0  0  0  0  0  0  0  0  0
    5.9055    3.2950   -0.7087 H    0  0  0  0  0  0  0  0  0  0  0  0
    5.6638   -1.1016   -0.8432 H    0  0  0  0  0  0  0  0  0  0  0  0
    5.6739   -1.1412    0.9133 H    0  0  0  0  0  0  0  0  0  0  0  0
    4.2204    4.8638   -0.0085 H    0  0  0  0  0  0  0  0  0  0  0  0
    3.4056    3.5236   -0.7992 H    0  0  0  0  0  0  0  0  0  0  0  0
    8.1869   -1.3043    0.8936 H    0  0  0  0  0  0  0  0  0  0  0  0
    8.1743   -1.2723   -0.8630 H    0  0  0  0  0  0  0  0  0  0  0  0
    2.7779    2.5755    1.4524 H    0  0  0  0  0  0  0  0  0  0  0  0
    3.6491    3.8694    2.2458 H    0  0  0  0  0  0  0  0  0  0  0  0
    6.8234   -3.3960   -0.8918 H    0  0  0  0  0  0  0  0  0  0  0  0
    6.8329   -3.4257    0.8648 H    0  0  0  0  0  0  0  0  0  0  0  0
    2.0812    5.5598    1.2016 H    0  0  0  0  0  0  0  0  0  0  0  0
    1.2260    4.2713    0.3897 H    0  0  0  0  0  0  0  0  0  0  0  0
    9.3459   -3.5909    0.8469 H    0  0  0  0  0  0  0  0  0  0  0  0
    9.3339   -3.5681   -0.9098 H    0  0  0  0  0  0  0  0  0  0  0  0
    7.9804   -5.6904   -0.9277 H    0  0  0  0  0  0  0  0  0  0  0  0
    7.9904   -5.7114    0.8290 H    0  0  0  0  0  0  0  0  0  0  0  0
   -0.6784    4.9590    3.2253 H    0  0  0  0  0  0  0  0  0  0  0  0
   10.5029   -5.8804    0.8114 H    0  0  0  0  0  0  0  0  0  0  0  0
   10.4908   -5.8647   -0.9454 H    0  0  0  0  0  0  0  0  0  0  0  0
    9.1352   -7.9863   -0.9546 H    0  0  0  0  0  0  0  0  0  0  0  0
    9.1465   -8.0009    0.8022 H    0  0  0  0  0  0  0  0  0  0  0  0
   11.6568   -8.1724    0.7833 H    0  0  0  0  0  0  0  0  0  0  0  0
   11.6442   -8.1608   -0.9726 H    0  0  0  0  0  0  0  0  0  0  0  0
   11.8426  -10.5046   -0.1112 H    0  0  0  0  0  0  0  0  0  0  0  0
   10.3139  -10.3126   -0.9836 H    0  0  0  0  0  0  0  0  0  0  0  0
   10.3268  -10.3238    0.7857 H    0  0  0  0  0  0  0  0  0  0  0  0
  1  2  1  0
  1  3  1  0
  2  4  1  0
  3  5  1  0
  4  6  1  0
  5  7  1  0
  6  8  1  0
  7  9  1  0
  8 10  1  0
  9 11  1  0
 10 12  1  0
 11 13  1  0
 11 14  2  0
 12 15  1  0
 15 16  1  0
 16 17  1  0
 17 18  1  0
  1 19  1  0
  1 20  1  0
  2 21  1  0
  2 22  1  0
  3 23  1  0
  3 24  1  0
  4 25  1  0
  4 26  1  0
  5 27  1  0
  5 28  1  0
  6 29  1  0
  6 30  1  0
  7 31  1  0
  7 32  1  0
  8 33  1  0
  8 34  1  0
  9 35  1  0
  9 36  1  0
 10 37  1  0
 10 38  1  0
 12 39  1  0
 12 40  1  0
 13 41  1  0
 15 42  1  0
 15 43  1  0
 16 44  1  0
 16 45  1  0
 17 46  1  0
 17 47  1  0
 18 48  1  0
 18 49  1  0
 18 50  1  0
M  END
