
 OpenBabel06061914043D

 50 49  0  0  0  0  0  0  0  0999 V2000
    5.1966    1.0199    0.3701 C   0  0  0  0  0  0  0  0  0  0  0  0
    5.6078   -0.1114   -0.5797 C   0  0  0  0  0  0  0  0  0  0  0  0
    4.4561    2.1303   -0.3848 C   0  0  0  0  0  0  0  0  0  0  0  0
    6.3479   -1.2220    0.1751 C   0  0  0  0  0  0  0  0  0  0  0  0
    4.0445    3.2615    0.5650 C   0  0  0  0  0  0  0  0  0  0  0  0
    6.7585   -2.3535   -0.7747 C   0  0  0  0  0  0  0  0  0  0  0  0
    3.3036    4.3717   -0.1898 C   0  0  0  0  0  0  0  0  0  0  0  0
    7.4982   -3.4644   -0.0199 C   0  0  0  0  0  0  0  0  0  0  0  0
    2.8933    5.5024    0.7598 C   0  0  0  0  0  0  0  0  0  0  0  0
    7.9084   -4.5961   -0.9698 C   0  0  0  0  0  0  0  0  0  0  0  0
    2.1667    6.5861    0.0167 C   0  0  0  0  0  0  0  0  0  0  0  0
    8.6477   -5.7073   -0.2151 C   0  0  0  0  0  0  0  0  0  0  0  0
    9.0576   -6.8390   -1.1651 C   0  0  0  0  0  0  0  0  0  0  0  0
    9.7967   -7.9504   -0.4105 C   0  0  0  0  0  0  0  0  0  0  0  0
   10.2060   -9.0816   -1.3608 C   0  0  0  0  0  0  0  0  0  0  0  0
   10.9419  -10.1899   -0.6135 C   0  0  0  0  0  0  0  0  0  0  0  0
    4.5328    0.6100    1.1631 H   0  0  0  0  0  0  0  0  0  0  0  0
    6.1060    1.4455    0.8493 H   0  0  0  0  0  0  0  0  0  0  0  0
    6.2716    0.2985   -1.3728 H   0  0  0  0  0  0  0  0  0  0  0  0
    4.6983   -0.5367   -1.0589 H   0  0  0  0  0  0  0  0  0  0  0  0
    3.5469    1.7046   -0.8641 H   0  0  0  0  0  0  0  0  0  0  0  0
    5.1199    2.5405   -1.1778 H   0  0  0  0  0  0  0  0  0  0  0  0
    5.6840   -1.6317    0.9683 H   0  0  0  0  0  0  0  0  0  0  0  0
    7.2574   -0.7968    0.6542 H   0  0  0  0  0  0  0  0  0  0  0  0
    3.3807    2.8514    1.3580 H   0  0  0  0  0  0  0  0  0  0  0  0
    4.9538    3.6871    1.0443 H   0  0  0  0  0  0  0  0  0  0  0  0
    7.4225   -1.9439   -1.5678 H   0  0  0  0  0  0  0  0  0  0  0  0
    5.8488   -2.7785   -1.2538 H   0  0  0  0  0  0  0  0  0  0  0  0
    3.9670    4.7832   -0.9828 H   0  0  0  0  0  0  0  0  0  0  0  0
    2.3953    3.9439   -0.6693 H   0  0  0  0  0  0  0  0  0  0  0  0
    6.8342   -3.8739    0.7732 H   0  0  0  0  0  0  0  0  0  0  0  0
    8.4080   -3.0396    0.4591 H   0  0  0  0  0  0  0  0  0  0  0  0
    2.2243    5.1054    1.5535 H   0  0  0  0  0  0  0  0  0  0  0  0
    3.8025    5.9249    1.2424 H   0  0  0  0  0  0  0  0  0  0  0  0
    8.5724   -4.1867   -1.7630 H   0  0  0  0  0  0  0  0  0  0  0  0
    6.9985   -5.0207   -1.4488 H   0  0  0  0  0  0  0  0  0  0  0  0
    7.9837   -6.1166    0.5781 H   0  0  0  0  0  0  0  0  0  0  0  0
    9.5577   -5.2827    0.2639 H   0  0  0  0  0  0  0  0  0  0  0  0
    9.7217   -6.4298   -1.9583 H   0  0  0  0  0  0  0  0  0  0  0  0
    8.1476   -7.2635   -1.6440 H   0  0  0  0  0  0  0  0  0  0  0  0
    9.1327   -8.3599    0.3827 H   0  0  0  0  0  0  0  0  0  0  0  0
   10.7069   -7.5263    0.0684 H   0  0  0  0  0  0  0  0  0  0  0  0
   10.8732   -8.6800   -2.1545 H   0  0  0  0  0  0  0  0  0  0  0  0
    9.3003   -9.5128   -1.8405 H   0  0  0  0  0  0  0  0  0  0  0  0
   11.8650   -9.7905   -0.1418 H   0  0  0  0  0  0  0  0  0  0  0  0
   11.2256  -10.9938   -1.3250 H   0  0  0  0  0  0  0  0  0  0  0  0
   10.2889  -10.6250    0.1729 H   0  0  0  0  0  0  0  0  0  0  0  0
    2.6168    7.7221   -0.0028 O   0  0  0  0  0  0  0  0  0  0  0  0
    1.0108    6.3062   -0.6227 O   0  0  0  0  0  0  0  0  0  0  0  0
    0.5269    6.9917   -1.1047 H   0  0  0  0  0  0  0  0  0  0  0  0
  1  2  1  0  0  0  0
  1  3  1  0  0  0  0
  1 17  1  0  0  0  0
  1 18  1  0  0  0  0
  2  4  1  0  0  0  0
  2 19  1  0  0  0  0
  2 20  1  0  0  0  0
  3  5  1  0  0  0  0
  3 21  1  0  0  0  0
  3 22  1  0  0  0  0
  4  6  1  0  0  0  0
  4 23  1  0  0  0  0
  4 24  1  0  0  0  0
  5  7  1  0  0  0  0
  5 25  1  0  0  0  0
  5 26  1  0  0  0  0
  6  8  1  0  0  0  0
  6 27  1  0  0  0  0
  6 28  1  0  0  0  0
  7  9  1  0  0  0  0
  7 29  1  0  0  0  0
  7 30  1  0  0  0  0
  8 10  1  0  0  0  0
  8 31  1  0  0  0  0
  8 32  1  0  0  0  0
  9 11  1  0  0  0  0
  9 33  1  0  0  0  0
  9 34  1  0  0  0  0
 10 12  1  0  0  0  0
 10 35  1  0  0  0  0
 10 36  1  0  0  0  0
 11 48  2  0  0  0  0
 11 49  1  0  0  0  0
 12 13  1  0  0  0  0
 12 37  1  0  0  0  0
 12 38  1  0  0  0  0
 13 14  1  0  0  0  0
 13 39  1  0  0  0  0
 13 40  1  0  0  0  0
 14 15  1  0  0  0  0
 14 41  1  0  0  0  0
 14 42  1  0  0  0  0
 15 16  1  0  0  0  0
 15 43  1  0  0  0  0
 15 44  1  0  0  0  0
 16 45  1  0  0  0  0
 16 46  1  0  0  0  0
 16 47  1  0  0  0  0
 49 50  1  0  0  0  0
M  END
