
 OpenBabel09281910483D

 77 76  0  0  0  0  0  0  0  0999 V2000
   12.6283    3.3780    2.0200 C   0  0  0  0  0  0  0  0  0  0  0  0
   11.2376    3.9939    2.2139 C   0  0  0  0  0  0  0  0  0  0  0  0
   10.2722    3.5293    1.1170 C   0  0  0  0  0  0  0  0  0  0  0  0
   13.5939    3.8431    3.1165 C   0  0  0  0  0  0  0  0  0  0  0  0
    8.8816    4.1456    1.3106 C   0  0  0  0  0  0  0  0  0  0  0  0
   14.9848    3.2278    2.9223 C   0  0  0  0  0  0  0  0  0  0  0  0
    7.9164    3.6815    0.2134 C   0  0  0  0  0  0  0  0  0  0  0  0
   15.9505    3.6933    4.0185 C   0  0  0  0  0  0  0  0  0  0  0  0
    6.5260    4.2983    0.4067 C   0  0  0  0  0  0  0  0  0  0  0  0
   17.3415    3.0783    3.8239 C   0  0  0  0  0  0  0  0  0  0  0  0
    5.5609    3.8345   -0.6909 C   0  0  0  0  0  0  0  0  0  0  0  0
   18.3073    3.5442    4.9199 C   0  0  0  0  0  0  0  0  0  0  0  0
    4.1706    4.4517   -0.4979 C   0  0  0  0  0  0  0  0  0  0  0  0
   19.6985    2.9295    4.7251 C   0  0  0  0  0  0  0  0  0  0  0  0
    3.2056    3.9882   -1.5956 C   0  0  0  0  0  0  0  0  0  0  0  0
   20.6644    3.3957    5.8209 C   0  0  0  0  0  0  0  0  0  0  0  0
    1.8154    4.6057   -1.4028 C   0  0  0  0  0  0  0  0  0  0  0  0
   22.0556    2.7812    5.6260 C   0  0  0  0  0  0  0  0  0  0  0  0
    0.8504    4.1424   -2.5007 C   0  0  0  0  0  0  0  0  0  0  0  0
   23.0216    3.2475    6.7217 C   0  0  0  0  0  0  0  0  0  0  0  0
   -0.5397    4.7600   -2.3080 C   0  0  0  0  0  0  0  0  0  0  0  0
   24.4124    2.6329    6.5262 C   0  0  0  0  0  0  0  0  0  0  0  0
   -1.5039    4.2965   -3.4060 C   0  0  0  0  0  0  0  0  0  0  0  0
   25.3768    3.0947    7.6148 C   0  0  0  0  0  0  0  0  0  0  0  0
   -2.8888    4.9091   -3.2178 C   0  0  0  0  0  0  0  0  0  0  0  0
   12.5459    2.2690    2.0499 H   0  0  0  0  0  0  0  0  0  0  0  0
   13.0281    3.6805    1.0268 H   0  0  0  0  0  0  0  0  0  0  0  0
   11.3202    5.1029    2.1841 H   0  0  0  0  0  0  0  0  0  0  0  0
   10.8376    3.6914    3.2070 H   0  0  0  0  0  0  0  0  0  0  0  0
   10.6724    3.8317    0.1240 H   0  0  0  0  0  0  0  0  0  0  0  0
   10.1894    2.4203    1.1468 H   0  0  0  0  0  0  0  0  0  0  0  0
   13.1943    3.5406    4.1097 H   0  0  0  0  0  0  0  0  0  0  0  0
   13.6761    4.9522    3.0866 H   0  0  0  0  0  0  0  0  0  0  0  0
    8.4812    3.8432    2.3035 H   0  0  0  0  0  0  0  0  0  0  0  0
    8.9646    5.2546    1.2810 H   0  0  0  0  0  0  0  0  0  0  0  0
   14.9027    2.1187    2.9523 H   0  0  0  0  0  0  0  0  0  0  0  0
   15.3842    3.5302    1.9290 H   0  0  0  0  0  0  0  0  0  0  0  0
    8.3170    3.9839   -0.7795 H   0  0  0  0  0  0  0  0  0  0  0  0
    7.8332    2.5725    0.2430 H   0  0  0  0  0  0  0  0  0  0  0  0
   15.5512    3.3908    5.0118 H   0  0  0  0  0  0  0  0  0  0  0  0
   16.0323    4.8024    3.9884 H   0  0  0  0  0  0  0  0  0  0  0  0
    6.6094    5.4072    0.3772 H   0  0  0  0  0  0  0  0  0  0  0  0
    6.1252    3.9958    1.3994 H   0  0  0  0  0  0  0  0  0  0  0  0
   17.2598    1.9692    3.8541 H   0  0  0  0  0  0  0  0  0  0  0  0
   17.7406    3.3808    2.8305 H   0  0  0  0  0  0  0  0  0  0  0  0
    5.9618    4.1369   -1.6836 H   0  0  0  0  0  0  0  0  0  0  0  0
    5.4773    2.7256   -0.6614 H   0  0  0  0  0  0  0  0  0  0  0  0
   18.3889    4.6533    4.8897 H   0  0  0  0  0  0  0  0  0  0  0  0
   17.9084    3.2417    5.9134 H   0  0  0  0  0  0  0  0  0  0  0  0
    4.2543    5.5606   -0.5273 H   0  0  0  0  0  0  0  0  0  0  0  0
    3.7696    4.1493    0.4948 H   0  0  0  0  0  0  0  0  0  0  0  0
   19.6170    1.8205    4.7554 H   0  0  0  0  0  0  0  0  0  0  0  0
   20.0973    3.2321    3.7316 H   0  0  0  0  0  0  0  0  0  0  0  0
    3.1218    2.8793   -1.5662 H   0  0  0  0  0  0  0  0  0  0  0  0
    3.6067    4.2906   -2.5882 H   0  0  0  0  0  0  0  0  0  0  0  0
   20.7457    4.5048    5.7906 H   0  0  0  0  0  0  0  0  0  0  0  0
   20.2656    3.0932    6.8145 H   0  0  0  0  0  0  0  0  0  0  0  0
    1.8992    5.7146   -1.4321 H   0  0  0  0  0  0  0  0  0  0  0  0
    1.4141    4.3033   -0.4102 H   0  0  0  0  0  0  0  0  0  0  0  0
   22.4544    3.0838    4.6325 H   0  0  0  0  0  0  0  0  0  0  0  0
   21.9744    1.6721    5.6564 H   0  0  0  0  0  0  0  0  0  0  0  0
    0.7664    3.0335   -2.4714 H   0  0  0  0  0  0  0  0  0  0  0  0
    1.2517    4.4448   -3.4933 H   0  0  0  0  0  0  0  0  0  0  0  0
   22.6232    2.9449    7.7154 H   0  0  0  0  0  0  0  0  0  0  0  0
   23.1032    4.3566    6.6914 H   0  0  0  0  0  0  0  0  0  0  0  0
   -0.4561    5.8689   -2.3375 H   0  0  0  0  0  0  0  0  0  0  0  0
   -0.9414    4.4576   -1.3156 H   0  0  0  0  0  0  0  0  0  0  0  0
   24.8184    2.9344    5.5359 H   0  0  0  0  0  0  0  0  0  0  0  0
   24.3389    1.5239    6.5590 H   0  0  0  0  0  0  0  0  0  0  0  0
   -1.1104    4.5988   -4.4011 H   0  0  0  0  0  0  0  0  0  0  0  0
   -1.5954    3.1887   -3.3801 H   0  0  0  0  0  0  0  0  0  0  0  0
   25.0057    2.7866    8.6155 H   0  0  0  0  0  0  0  0  0  0  0  0
   25.4862    4.1999    7.5903 H   0  0  0  0  0  0  0  0  0  0  0  0
   26.3738    2.6350    7.4483 H   0  0  0  0  0  0  0  0  0  0  0  0
   -3.3159    4.6046   -2.2385 H   0  0  0  0  0  0  0  0  0  0  0  0
   -3.5646    4.5568   -4.0253 H   0  0  0  0  0  0  0  0  0  0  0  0
   -2.8299    6.0176   -3.2616 H   0  0  0  0  0  0  0  0  0  0  0  0
  1  2  1  0  0  0  0
  1  4  1  0  0  0  0
  1 26  1  0  0  0  0
  1 27  1  0  0  0  0
  2  3  1  0  0  0  0
  2 28  1  0  0  0  0
  2 29  1  0  0  0  0
  3  5  1  0  0  0  0
  3 30  1  0  0  0  0
  3 31  1  0  0  0  0
  4  6  1  0  0  0  0
  4 32  1  0  0  0  0
  4 33  1  0  0  0  0
  5  7  1  0  0  0  0
  5 34  1  0  0  0  0
  5 35  1  0  0  0  0
  6  8  1  0  0  0  0
  6 36  1  0  0  0  0
  6 37  1  0  0  0  0
  7  9  1  0  0  0  0
  7 38  1  0  0  0  0
  7 39  1  0  0  0  0
  8 10  1  0  0  0  0
  8 40  1  0  0  0  0
  8 41  1  0  0  0  0
  9 11  1  0  0  0  0
  9 42  1  0  0  0  0
  9 43  1  0  0  0  0
 10 12  1  0  0  0  0
 10 44  1  0  0  0  0
 10 45  1  0  0  0  0
 11 13  1  0  0  0  0
 11 46  1  0  0  0  0
 11 47  1  0  0  0  0
 12 14  1  0  0  0  0
 12 48  1  0  0  0  0
 12 49  1  0  0  0  0
 13 15  1  0  0  0  0
 13 50  1  0  0  0  0
 13 51  1  0  0  0  0
 14 16  1  0  0  0  0
 14 52  1  0  0  0  0
 14 53  1  0  0  0  0
 15 17  1  0  0  0  0
 15 54  1  0  0  0  0
 15 55  1  0  0  0  0
 16 18  1  0  0  0  0
 16 56  1  0  0  0  0
 16 57  1  0  0  0  0
 17 19  1  0  0  0  0
 17 58  1  0  0  0  0
 17 59  1  0  0  0  0
 18 20  1  0  0  0  0
 18 60  1  0  0  0  0
 18 61  1  0  0  0  0
 19 21  1  0  0  0  0
 19 62  1  0  0  0  0
 19 63  1  0  0  0  0
 20 22  1  0  0  0  0
 20 64  1  0  0  0  0
 20 65  1  0  0  0  0
 21 23  1  0  0  0  0
 21 66  1  0  0  0  0
 21 67  1  0  0  0  0
 22 24  1  0  0  0  0
 22 68  1  0  0  0  0
 22 69  1  0  0  0  0
 23 25  1  0  0  0  0
 23 70  1  0  0  0  0
 23 71  1  0  0  0  0
 24 72  1  0  0  0  0
 24 73  1  0  0  0  0
 24 74  1  0  0  0  0
 25 75  1  0  0  0  0
 25 76  1  0  0  0  0
 25 77  1  0  0  0  0
M  END
