
 OpenBabel11251910233D

 47 46  0  0  0  0  0  0  0  0999 V2000
    2.6008    1.5851    5.2180 C   0  0  0  0  0  0  0  0  0  0  0  0
    3.2918    2.7992    4.5858 C   0  0  0  0  0  0  0  0  0  0  0  0
    4.6828    2.4278    4.0584 C   0  0  0  0  0  0  0  0  0  0  0  0
    1.2097    1.9566    5.7454 C   0  0  0  0  0  0  0  0  0  0  0  0
    5.3739    3.6418    3.4263 C   0  0  0  0  0  0  0  0  0  0  0  0
    0.5187    0.7425    6.3777 C   0  0  0  0  0  0  0  0  0  0  0  0
    6.7650    3.2705    2.8990 C   0  0  0  0  0  0  0  0  0  0  0  0
   -0.8723    1.1140    6.9051 C   0  0  0  0  0  0  0  0  0  0  0  0
    7.4560    4.4845    2.2668 C   0  0  0  0  0  0  0  0  0  0  0  0
   -1.5633   -0.1000    7.5374 C   0  0  0  0  0  0  0  0  0  0  0  0
    8.8471    4.1132    1.7396 C   0  0  0  0  0  0  0  0  0  0  0  0
   -2.9539    0.2720    8.0646 C   0  0  0  0  0  0  0  0  0  0  0  0
    9.5375    5.3274    1.1078 C   0  0  0  0  0  0  0  0  0  0  0  0
   -3.6450   -0.9337    8.6947 C   0  0  0  0  0  0  0  0  0  0  0  0
   10.9224    4.9619    0.5818 C   0  0  0  0  0  0  0  0  0  0  0  0
    2.5014    0.7813    4.4554 H   0  0  0  0  0  0  0  0  0  0  0  0
    3.2226    1.2058    6.0588 H   0  0  0  0  0  0  0  0  0  0  0  0
    3.3911    3.6031    5.3484 H   0  0  0  0  0  0  0  0  0  0  0  0
    2.6699    3.1785    3.7449 H   0  0  0  0  0  0  0  0  0  0  0  0
    4.5835    1.6239    3.2958 H   0  0  0  0  0  0  0  0  0  0  0  0
    5.3046    2.0484    4.8993 H   0  0  0  0  0  0  0  0  0  0  0  0
    0.5879    2.3359    4.9045 H   0  0  0  0  0  0  0  0  0  0  0  0
    1.3091    2.7604    6.5080 H   0  0  0  0  0  0  0  0  0  0  0  0
    4.7521    4.0212    2.5854 H   0  0  0  0  0  0  0  0  0  0  0  0
    5.4732    4.4457    4.1889 H   0  0  0  0  0  0  0  0  0  0  0  0
    1.1406    0.3632    7.2185 H   0  0  0  0  0  0  0  0  0  0  0  0
    0.4193   -0.0613    5.6151 H   0  0  0  0  0  0  0  0  0  0  0  0
    7.3867    2.8911    3.7399 H   0  0  0  0  0  0  0  0  0  0  0  0
    6.6656    2.4666    2.1364 H   0  0  0  0  0  0  0  0  0  0  0  0
   -0.7729    1.9178    7.6677 H   0  0  0  0  0  0  0  0  0  0  0  0
   -1.4942    1.4933    6.0643 H   0  0  0  0  0  0  0  0  0  0  0  0
    6.8343    4.8639    1.4259 H   0  0  0  0  0  0  0  0  0  0  0  0
    7.5554    5.2884    3.0295 H   0  0  0  0  0  0  0  0  0  0  0  0
   -0.9417   -0.4794    8.3784 H   0  0  0  0  0  0  0  0  0  0  0  0
   -1.6630   -0.9040    6.7750 H   0  0  0  0  0  0  0  0  0  0  0  0
    8.7480    3.3095    0.9768 H   0  0  0  0  0  0  0  0  0  0  0  0
    9.4691    3.7340    2.5804 H   0  0  0  0  0  0  0  0  0  0  0  0
   -2.8615    1.0730    8.8302 H   0  0  0  0  0  0  0  0  0  0  0  0
   -3.5823    0.6488    7.2281 H   0  0  0  0  0  0  0  0  0  0  0  0
    8.9227    5.7097    0.2638 H   0  0  0  0  0  0  0  0  0  0  0  0
    9.6432    6.1338    1.8660 H   0  0  0  0  0  0  0  0  0  0  0  0
   -3.7704   -1.7429    7.9440 H   0  0  0  0  0  0  0  0  0  0  0  0
   -4.6478   -0.6356    9.0670 H   0  0  0  0  0  0  0  0  0  0  0  0
   -3.0482   -1.3178    9.5494 H   0  0  0  0  0  0  0  0  0  0  0  0
   11.3979    5.8583    0.1307 H   0  0  0  0  0  0  0  0  0  0  0  0
   10.8443    4.1718   -0.1953 H   0  0  0  0  0  0  0  0  0  0  0  0
   11.5662    4.5968    1.4103 H   0  0  0  0  0  0  0  0  0  0  0  0
  1  2  1  0  0  0  0
  1  4  1  0  0  0  0
  1 16  1  0  0  0  0
  1 17  1  0  0  0  0
  2  3  1  0  0  0  0
  2 18  1  0  0  0  0
  2 19  1  0  0  0  0
  3  5  1  0  0  0  0
  3 20  1  0  0  0  0
  3 21  1  0  0  0  0
  4  6  1  0  0  0  0
  4 22  1  0  0  0  0
  4 23  1  0  0  0  0
  5  7  1  0  0  0  0
  5 24  1  0  0  0  0
  5 25  1  0  0  0  0
  6  8  1  0  0  0  0
  6 26  1  0  0  0  0
  6 27  1  0  0  0  0
  7  9  1  0  0  0  0
  7 28  1  0  0  0  0
  7 29  1  0  0  0  0
  8 10  1  0  0  0  0
  8 30  1  0  0  0  0
  8 31  1  0  0  0  0
  9 11  1  0  0  0  0
  9 32  1  0  0  0  0
  9 33  1  0  0  0  0
 10 12  1  0  0  0  0
 10 34  1  0  0  0  0
 10 35  1  0  0  0  0
 11 13  1  0  0  0  0
 11 36  1  0  0  0  0
 11 37  1  0  0  0  0
 12 14  1  0  0  0  0
 12 38  1  0  0  0  0
 12 39  1  0  0  0  0
 13 15  1  0  0  0  0
 13 40  1  0  0  0  0
 13 41  1  0  0  0  0
 14 42  1  0  0  0  0
 14 43  1  0  0  0  0
 14 44  1  0  0  0  0
 15 45  1  0  0  0  0
 15 46  1  0  0  0  0
 15 47  1  0  0  0  0
M  END
