  N-PENTADECYLIC ACID.mol	1002-84-2
  NIST    11071316233D 1   1.00000  -740.16132
Copyright by the U.S. Sec. Commerce on behalf of U.S.A. All rights reserved.
 47 46  0  0  0  0  0  0  0  0999 V2000
    6.9189    1.5085   -0.0241 C    0  0  0  0  0  0  0  0  0  0  0  0
    5.6021    0.7220    0.0133 C    0  0  0  0  0  0  0  0  0  0  0  0
    5.7945   -0.7995   -0.0207 C    0  0  0  0  0  0  0  0  0  0  0  0
    6.7255    3.0299    0.0102 C    0  0  0  0  0  0  0  0  0  0  0  0
    4.4769   -1.5844    0.0188 C    0  0  0  0  0  0  0  0  0  0  0  0
    8.0415    3.8179   -0.0254 C    0  0  0  0  0  0  0  0  0  0  0  0
    4.6689   -3.1058   -0.0177 C    0  0  0  0  0  0  0  0  0  0  0  0
    7.8463    5.3390    0.0113 C    0  0  0  0  0  0  0  0  0  0  0  0
    3.3471   -3.8821    0.0254 C    0  0  0  0  0  0  0  0  0  0  0  0
    9.1611    6.1289   -0.0228 C    0  0  0  0  0  0  0  0  0  0  0  0
    3.5498   -5.3977   -0.0161 C    0  0  0  0  0  0  0  0  0  0  0  0
    8.9648    7.6496    0.0179 C    0  0  0  0  0  0  0  0  0  0  0  0
    2.2524   -6.1747    0.0362 C    0  0  0  0  0  0  0  0  0  0  0  0
   10.2787    8.4407   -0.0160 C    0  0  0  0  0  0  0  0  0  0  0  0
    2.4729   -7.5145   -0.0217 O    0  0  0  0  0  0  0  0  0  0  0  0
    1.1390   -5.7055    0.1202 O    0  0  0  0  0  0  0  0  0  0  0  0
   10.0735    9.9583    0.0289 C    0  0  0  0  0  0  0  0  0  0  0  0
    7.5482    1.2036    0.8254 H    0  0  0  0  0  0  0  0  0  0  0  0
    7.4801    1.2343   -0.9299 H    0  0  0  0  0  0  0  0  0  0  0  0
    4.9727    1.0270   -0.8359 H    0  0  0  0  0  0  0  0  0  0  0  0
    5.0411    0.9963    0.9192 H    0  0  0  0  0  0  0  0  0  0  0  0
    6.4248   -1.1046    0.8279 H    0  0  0  0  0  0  0  0  0  0  0  0
    6.3541   -1.0742   -0.9274 H    0  0  0  0  0  0  0  0  0  0  0  0
    6.0967    3.3347   -0.8397 H    0  0  0  0  0  0  0  0  0  0  0  0
    6.1633    3.3034    0.9156 H    0  0  0  0  0  0  0  0  0  0  0  0
    3.8457   -1.2789   -0.8287 H    0  0  0  0  0  0  0  0  0  0  0  0
    3.9180   -1.3117    0.9261 H    0  0  0  0  0  0  0  0  0  0  0  0
    8.6707    3.5124    0.8238 H    0  0  0  0  0  0  0  0  0  0  0  0
    8.6034    3.5458   -0.9315 H    0  0  0  0  0  0  0  0  0  0  0  0
    5.3019   -3.4122    0.8286 H    0  0  0  0  0  0  0  0  0  0  0  0
    5.2258   -3.3795   -0.9265 H    0  0  0  0  0  0  0  0  0  0  0  0
    7.2172    5.6446   -0.8380 H    0  0  0  0  0  0  0  0  0  0  0  0
    7.2837    5.6103    0.9172 H    0  0  0  0  0  0  0  0  0  0  0  0
    2.7093   -3.5823   -0.8155 H    0  0  0  0  0  0  0  0  0  0  0  0
    2.7880   -3.6198    0.9322 H    0  0  0  0  0  0  0  0  0  0  0  0
    9.7912    5.8218    0.8253 H    0  0  0  0  0  0  0  0  0  0  0  0
    9.7230    5.8597   -0.9298 H    0  0  0  0  0  0  0  0  0  0  0  0
    4.1756   -5.7391    0.8200 H    0  0  0  0  0  0  0  0  0  0  0  0
    4.0866   -5.7044   -0.9241 H    0  0  0  0  0  0  0  0  0  0  0  0
    8.3348    7.9578   -0.8299 H    0  0  0  0  0  0  0  0  0  0  0  0
    8.4035    7.9193    0.9252 H    0  0  0  0  0  0  0  0  0  0  0  0
   10.9092    8.1318    0.8301 H    0  0  0  0  0  0  0  0  0  0  0  0
   10.8385    8.1741   -0.9240 H    0  0  0  0  0  0  0  0  0  0  0  0
    1.5919   -7.9319    0.0195 H    0  0  0  0  0  0  0  0  0  0  0  0
   11.0299   10.4929    0.0009 H    0  0  0  0  0  0  0  0  0  0  0  0
    9.4743   10.3030   -0.8230 H    0  0  0  0  0  0  0  0  0  0  0  0
    9.5497   10.2608    0.9442 H    0  0  0  0  0  0  0  0  0  0  0  0
  1  2  1  0
  1  4  1  0
  2  3  1  0
  3  5  1  0
  4  6  1  0
  5  7  1  0
  6  8  1  0
  7  9  1  0
  8 10  1  0
  9 11  1  0
 10 12  1  0
 11 13  1  0
 12 14  1  0
 13 15  1  0
 13 16  2  0
 14 17  1  0
  1 18  1  0
  1 19  1  0
  2 20  1  0
  2 21  1  0
  3 22  1  0
  3 23  1  0
  4 24  1  0
  4 25  1  0
  5 26  1  0
  5 27  1  0
  6 28  1  0
  6 29  1  0
  7 30  1  0
  7 31  1  0
  8 32  1  0
  8 33  1  0
  9 34  1  0
  9 35  1  0
 10 36  1  0
 10 37  1  0
 11 38  1  0
 11 39  1  0
 12 40  1  0
 12 41  1  0
 14 42  1  0
 14 43  1  0
 15 44  1  0
 17 45  1  0
 17 46  1  0
 17 47  1  0
M  END
