  N-TETRADECYLAMINE.mol	2016-42-4
  NIST    07081507303D 1   1.00000  -606.93470
Copyright by the U.S. Sec. Commerce on behalf of U.S.A. All rights reserved.
 46 45  0  0  0  0  0  0  0  0999 V2000
  137.9932   10.0354   -0.0049 C    0  0  0  0  0  0  0  0  0  0  0  0
  136.6978    9.2134   -0.0057 C    0  0  0  0  0  0  0  0  0  0  0  0
  136.9323    7.6973   -0.0091 C    0  0  0  0  0  0  0  0  0  0  0  0
  137.7583   11.5514   -0.0013 C    0  0  0  0  0  0  0  0  0  0  0  0
  135.6368    6.8755   -0.0094 C    0  0  0  0  0  0  0  0  0  0  0  0
  139.0534   12.3739   -0.0002 C    0  0  0  0  0  0  0  0  0  0  0  0
  135.8717    5.3596   -0.0121 C    0  0  0  0  0  0  0  0  0  0  0  0
  138.8177   13.8898    0.0033 C    0  0  0  0  0  0  0  0  0  0  0  0
  134.5760    4.5379   -0.0121 C    0  0  0  0  0  0  0  0  0  0  0  0
  140.1120   14.7133    0.0045 C    0  0  0  0  0  0  0  0  0  0  0  0
  134.8144    3.0231   -0.0097 C    0  0  0  0  0  0  0  0  0  0  0  0
  139.8763   16.2291    0.0078 C    0  0  0  0  0  0  0  0  0  0  0  0
  133.5214    2.2052   -0.0177 C    0  0  0  0  0  0  0  0  0  0  0  0
  141.1742   17.0435    0.0089 C    0  0  0  0  0  0  0  0  0  0  0  0
  133.8171    0.7675    0.0335 N    0  0  0  0  0  0  0  0  0  0  0  0
  138.5973    9.7599    0.8725 H    0  0  0  0  0  0  0  0  0  0  0  0
  138.5961    9.7638   -0.8843 H    0  0  0  0  0  0  0  0  0  0  0  0
  136.0937    9.4890   -0.8831 H    0  0  0  0  0  0  0  0  0  0  0  0
  136.0950    9.4851    0.8738 H    0  0  0  0  0  0  0  0  0  0  0  0
  137.5365    7.4218    0.8681 H    0  0  0  0  0  0  0  0  0  0  0  0
  137.5349    7.4255   -0.8887 H    0  0  0  0  0  0  0  0  0  0  0  0
  137.1543   11.8268   -0.8788 H    0  0  0  0  0  0  0  0  0  0  0  0
  137.1553   11.8228    0.8780 H    0  0  0  0  0  0  0  0  0  0  0  0
  135.0325    7.1508   -0.8868 H    0  0  0  0  0  0  0  0  0  0  0  0
  135.0343    7.1475    0.8701 H    0  0  0  0  0  0  0  0  0  0  0  0
  139.6574   12.0987    0.8773 H    0  0  0  0  0  0  0  0  0  0  0  0
  139.6565   12.1026   -0.8796 H    0  0  0  0  0  0  0  0  0  0  0  0
  136.4755    5.0840    0.8652 H    0  0  0  0  0  0  0  0  0  0  0  0
  136.4741    5.0872   -0.8916 H    0  0  0  0  0  0  0  0  0  0  0  0
  138.2136   14.1649   -0.8743 H    0  0  0  0  0  0  0  0  0  0  0  0
  138.2145   14.1610    0.8826 H    0  0  0  0  0  0  0  0  0  0  0  0
  133.9728    4.8131   -0.8903 H    0  0  0  0  0  0  0  0  0  0  0  0
  133.9739    4.8119    0.8670 H    0  0  0  0  0  0  0  0  0  0  0  0
  140.7168   14.4394    0.8821 H    0  0  0  0  0  0  0  0  0  0  0  0
  140.7160   14.4432   -0.8749 H    0  0  0  0  0  0  0  0  0  0  0  0
  135.4030    2.7320    0.8698 H    0  0  0  0  0  0  0  0  0  0  0  0
  135.4181    2.7490   -0.8890 H    0  0  0  0  0  0  0  0  0  0  0  0
  139.2730   16.5034   -0.8694 H    0  0  0  0  0  0  0  0  0  0  0  0
  139.2738   16.4996    0.8867 H    0  0  0  0  0  0  0  0  0  0  0  0
  132.9090    2.5060   -0.8891 H    0  0  0  0  0  0  0  0  0  0  0  0
  132.9320    2.4531    0.8750 H    0  0  0  0  0  0  0  0  0  0  0  0
  140.9719   18.1207    0.0112 H    0  0  0  0  0  0  0  0  0  0  0  0
  141.7833   16.8171    0.8929 H    0  0  0  0  0  0  0  0  0  0  0  0
  141.7826   16.8207   -0.8764 H    0  0  0  0  0  0  0  0  0  0  0  0
  132.9466    0.2381    0.0574 H    0  0  0  0  0  0  0  0  0  0  0  0
  134.2876    0.4892   -0.8276 H    0  0  0  0  0  0  0  0  0  0  0  0
  1  2  1  0  0  0  0
  1  4  1  0  0  0  0
  1 16  1  0  0  0  0
  1 17  1  0  0  0  0
  2  3  1  0  0  0  0
  2 18  1  0  0  0  0
  2 19  1  0  0  0  0
  3  5  1  0  0  0  0
  3 20  1  0  0  0  0
  3 21  1  0  0  0  0
  4  6  1  0  0  0  0
  4 22  1  0  0  0  0
  4 23  1  0  0  0  0
  5  7  1  0  0  0  0
  5 24  1  0  0  0  0
  5 25  1  0  0  0  0
  6  8  1  0  0  0  0
  6 26  1  0  0  0  0
  6 27  1  0  0  0  0
  7  9  1  0  0  0  0
  7 28  1  0  0  0  0
  7 29  1  0  0  0  0
  8 10  1  0  0  0  0
  8 30  1  0  0  0  0
  8 31  1  0  0  0  0
  9 11  1  0  0  0  0
  9 32  1  0  0  0  0
  9 33  1  0  0  0  0
 10 12  1  0  0  0  0
 10 34  1  0  0  0  0
 10 35  1  0  0  0  0
 11 13  1  0  0  0  0
 11 36  1  0  0  0  0
 11 37  1  0  0  0  0
 12 14  1  0  0  0  0
 12 38  1  0  0  0  0
 12 39  1  0  0  0  0
 13 15  1  0  0  0  0
 13 40  1  0  0  0  0
 13 41  1  0  0  0  0
 14 42  1  0  0  0  0
 14 43  1  0  0  0  0
 14 44  1  0  0  0  0
 15 45  1  0  0  0  0
 15 46  1  0  0  0  0
M  END
