  N-TRIDECYLIC ACID.mol	638-53-9
  NIST    06241313413D 1   1.00000  -661.53395
Copyright by the U.S. Sec. Commerce on behalf of U.S.A. All rights reserved.
 41 40  0  0  0  0  0  0  0  0999 V2000
   -0.0585    0.6793    0.0158 C    0  0  0  0  0  0  0  0  0  0  0  0
    1.2327    1.5030   -0.0246 C    0  0  0  0  0  0  0  0  0  0  0  0
    0.9875    3.0168    0.0209 C    0  0  0  0  0  0  0  0  0  0  0  0
    2.2751    3.8497   -0.0197 C    0  0  0  0  0  0  0  0  0  0  0  0
    2.0292    5.3634    0.0229 C    0  0  0  0  0  0  0  0  0  0  0  0
    3.3173    6.1958   -0.0188 C    0  0  0  0  0  0  0  0  0  0  0  0
    3.0714    7.7096    0.0225 C    0  0  0  0  0  0  0  0  0  0  0  0
    4.3595    8.5417   -0.0203 C    0  0  0  0  0  0  0  0  0  0  0  0
    7.3717   15.3999   -0.0229 O    0  0  0  0  0  0  0  0  0  0  0  0
    6.2018   14.7102    0.0277 C    0  0  0  0  0  0  0  0  0  0  0  0
    6.4382   13.2164   -0.0219 C    0  0  0  0  0  0  0  0  0  0  0  0
    5.1272   15.2637    0.1032 O    0  0  0  0  0  0  0  0  0  0  0  0
    5.1463   12.3984    0.0247 C    0  0  0  0  0  0  0  0  0  0  0  0
    5.4012   10.8870   -0.0215 C    0  0  0  0  0  0  0  0  0  0  0  0
    4.1129   10.0553    0.0222 C    0  0  0  0  0  0  0  0  0  0  0  0
    0.1504   -0.3961   -0.0195 H    0  0  0  0  0  0  0  0  0  0  0  0
   -0.6271    0.8781    0.9327 H    0  0  0  0  0  0  0  0  0  0  0  0
   -0.7090    0.9204   -0.8341 H    0  0  0  0  0  0  0  0  0  0  0  0
    1.7964    1.2553   -0.9354 H    0  0  0  0  0  0  0  0  0  0  0  0
    1.8771    1.2152    0.8183 H    0  0  0  0  0  0  0  0  0  0  0  0
    0.4224    3.2643    0.9321 H    0  0  0  0  0  0  0  0  0  0  0  0
    0.3418    3.3039   -0.8225 H    0  0  0  0  0  0  0  0  0  0  0  0
    2.8403    3.5997   -0.9300 H    0  0  0  0  0  0  0  0  0  0  0  0
    2.9196    3.5629    0.8247 H    0  0  0  0  0  0  0  0  0  0  0  0
    1.4645    5.6138    0.9334 H    0  0  0  0  0  0  0  0  0  0  0  0
    1.3844    5.6500   -0.8212 H    0  0  0  0  0  0  0  0  0  0  0  0
    3.8822    5.9449   -0.9291 H    0  0  0  0  0  0  0  0  0  0  0  0
    3.9619    5.9098    0.8257 H    0  0  0  0  0  0  0  0  0  0  0  0
    2.5071    7.9608    0.9329 H    0  0  0  0  0  0  0  0  0  0  0  0
    2.4264    7.9957   -0.8217 H    0  0  0  0  0  0  0  0  0  0  0  0
    4.9235    8.2913   -0.9312 H    0  0  0  0  0  0  0  0  0  0  0  0
    5.0049    8.2553    0.8235 H    0  0  0  0  0  0  0  0  0  0  0  0
    7.1270   16.3437    0.0146 H    0  0  0  0  0  0  0  0  0  0  0  0
    7.0149   13.0003   -0.9316 H    0  0  0  0  0  0  0  0  0  0  0  0
    7.1046   12.9570    0.8121 H    0  0  0  0  0  0  0  0  0  0  0  0
    4.5905   12.6568    0.9346 H    0  0  0  0  0  0  0  0  0  0  0  0
    4.5028   12.6954   -0.8128 H    0  0  0  0  0  0  0  0  0  0  0  0
    5.9633   10.6378   -0.9341 H    0  0  0  0  0  0  0  0  0  0  0  0
    6.0482   10.5986    0.8204 H    0  0  0  0  0  0  0  0  0  0  0  0
    3.5503   10.3065    0.9335 H    0  0  0  0  0  0  0  0  0  0  0  0
    3.4675   10.3425   -0.8208 H    0  0  0  0  0  0  0  0  0  0  0  0
  1  2  1  0
  2  3  1  0
  3  4  1  0
  4  5  1  0
  5  6  1  0
  6  7  1  0
  7  8  1  0
  8 15  1  0
  9 10  1  0
 10 11  1  0
 10 12  2  0
 11 13  1  0
 13 14  1  0
 14 15  1  0
  1 16  1  0
  1 17  1  0
  1 18  1  0
  2 19  1  0
  2 20  1  0
  3 21  1  0
  3 22  1  0
  4 23  1  0
  4 24  1  0
  5 25  1  0
  5 26  1  0
  6 27  1  0
  6 28  1  0
  7 29  1  0
  7 30  1  0
  8 31  1  0
  8 32  1  0
  9 33  1  0
 11 34  1  0
 11 35  1  0
 13 36  1  0
 13 37  1  0
 14 38  1  0
 14 39  1  0
 15 40  1  0
 15 41  1  0
M  END
