
 OpenBabel09281909513D

 92 91  0  0  0  0  0  0  0  0999 V2000
   12.7315    1.4907    7.1261 C   0  0  0  0  0  0  0  0  0  0  0  0
   11.3799    1.6663    6.4236 C   0  0  0  0  0  0  0  0  0  0  0  0
   10.2193    1.3893    7.3866 C   0  0  0  0  0  0  0  0  0  0  0  0
   13.8923    1.7687    6.1636 C   0  0  0  0  0  0  0  0  0  0  0  0
    8.8676    1.5659    6.6848 C   0  0  0  0  0  0  0  0  0  0  0  0
   15.2437    1.5941    6.8667 C   0  0  0  0  0  0  0  0  0  0  0  0
    7.7072    1.2898    7.6484 C   0  0  0  0  0  0  0  0  0  0  0  0
   16.4047    1.8729    5.9048 C   0  0  0  0  0  0  0  0  0  0  0  0
    6.3553    1.4673    6.9471 C   0  0  0  0  0  0  0  0  0  0  0  0
   17.7559    1.6992    6.6085 C   0  0  0  0  0  0  0  0  0  0  0  0
    5.1952    1.1921    7.9112 C   0  0  0  0  0  0  0  0  0  0  0  0
   18.9171    1.9790    5.6470 C   0  0  0  0  0  0  0  0  0  0  0  0
    3.8431    1.3703    7.2104 C   0  0  0  0  0  0  0  0  0  0  0  0
   20.2682    1.8060    6.3512 C   0  0  0  0  0  0  0  0  0  0  0  0
    2.6831    1.0957    8.1748 C   0  0  0  0  0  0  0  0  0  0  0  0
   21.4296    2.0864    5.3902 C   0  0  0  0  0  0  0  0  0  0  0  0
    1.3309    1.2745    7.4744 C   0  0  0  0  0  0  0  0  0  0  0  0
   22.7805    1.9141    6.0947 C   0  0  0  0  0  0  0  0  0  0  0  0
    0.1711    1.0005    8.4392 C   0  0  0  0  0  0  0  0  0  0  0  0
   23.9420    2.1950    5.1339 C   0  0  0  0  0  0  0  0  0  0  0  0
   -1.1812    1.1797    7.7390 C   0  0  0  0  0  0  0  0  0  0  0  0
   25.2929    2.0230    5.8387 C   0  0  0  0  0  0  0  0  0  0  0  0
   -2.3410    0.9060    8.7040 C   0  0  0  0  0  0  0  0  0  0  0  0
   26.4545    2.3042    4.8782 C   0  0  0  0  0  0  0  0  0  0  0  0
   -3.6933    1.0854    8.0040 C   0  0  0  0  0  0  0  0  0  0  0  0
   27.8053    2.1325    5.5830 C   0  0  0  0  0  0  0  0  0  0  0  0
   -4.8524    0.8117    8.9694 C   0  0  0  0  0  0  0  0  0  0  0  0
   28.9662    2.4139    4.6222 C   0  0  0  0  0  0  0  0  0  0  0  0
   -6.2002    0.9893    8.2764 C   0  0  0  0  0  0  0  0  0  0  0  0
   30.3125    2.2441    5.3202 C   0  0  0  0  0  0  0  0  0  0  0  0
   12.8135    0.4494    7.5089 H   0  0  0  0  0  0  0  0  0  0  0  0
   12.7918    2.1939    7.9860 H   0  0  0  0  0  0  0  0  0  0  0  0
   11.3191    0.9630    5.5638 H   0  0  0  0  0  0  0  0  0  0  0  0
   11.2982    2.7076    6.0407 H   0  0  0  0  0  0  0  0  0  0  0  0
   10.2806    2.0925    8.2465 H   0  0  0  0  0  0  0  0  0  0  0  0
   10.3008    0.3480    7.7695 H   0  0  0  0  0  0  0  0  0  0  0  0
   13.8324    1.0654    5.3037 H   0  0  0  0  0  0  0  0  0  0  0  0
   13.8099    2.8100    5.7807 H   0  0  0  0  0  0  0  0  0  0  0  0
    8.8059    0.8626    5.8250 H   0  0  0  0  0  0  0  0  0  0  0  0
    8.7864    2.6072    6.3018 H   0  0  0  0  0  0  0  0  0  0  0  0
   15.3263    0.5528    7.2495 H   0  0  0  0  0  0  0  0  0  0  0  0
   15.3031    2.2972    7.7268 H   0  0  0  0  0  0  0  0  0  0  0  0
    7.7881    0.2485    8.0313 H   0  0  0  0  0  0  0  0  0  0  0  0
    7.7694    1.9931    8.5082 H   0  0  0  0  0  0  0  0  0  0  0  0
   16.3217    2.9142    5.5220 H   0  0  0  0  0  0  0  0  0  0  0  0
   16.3457    1.1697    5.0448 H   0  0  0  0  0  0  0  0  0  0  0  0
    6.2928    0.7639    6.0874 H   0  0  0  0  0  0  0  0  0  0  0  0
    6.2747    2.5086    6.5641 H   0  0  0  0  0  0  0  0  0  0  0  0
   17.8391    0.6580    6.9912 H   0  0  0  0  0  0  0  0  0  0  0  0
   17.8145    2.4024    7.4686 H   0  0  0  0  0  0  0  0  0  0  0  0
    5.2755    0.1507    8.2941 H   0  0  0  0  0  0  0  0  0  0  0  0
    5.2581    1.8953    8.7709 H   0  0  0  0  0  0  0  0  0  0  0  0
   18.8337    3.0202    5.2642 H   0  0  0  0  0  0  0  0  0  0  0  0
   18.8589    1.2758    4.7869 H   0  0  0  0  0  0  0  0  0  0  0  0
    3.7629    2.4117    6.8273 H   0  0  0  0  0  0  0  0  0  0  0  0
    3.7798    0.6669    6.3507 H   0  0  0  0  0  0  0  0  0  0  0  0
   20.3518    0.7648    6.7339 H   0  0  0  0  0  0  0  0  0  0  0  0
   20.3260    2.5092    7.2114 H   0  0  0  0  0  0  0  0  0  0  0  0
    2.7631    0.0543    8.5579 H   0  0  0  0  0  0  0  0  0  0  0  0
    2.7467    1.7990    9.0345 H   0  0  0  0  0  0  0  0  0  0  0  0
   21.3720    1.3833    4.5300 H   0  0  0  0  0  0  0  0  0  0  0  0
   21.3457    3.1276    5.0074 H   0  0  0  0  0  0  0  0  0  0  0  0
    1.2511    2.3160    7.0914 H   0  0  0  0  0  0  0  0  0  0  0  0
    1.2671    0.5712    6.6148 H   0  0  0  0  0  0  0  0  0  0  0  0
   22.8645    0.8729    6.4774 H   0  0  0  0  0  0  0  0  0  0  0  0
   22.8378    2.6172    6.9549 H   0  0  0  0  0  0  0  0  0  0  0  0
    0.2351    1.7038    9.2988 H   0  0  0  0  0  0  0  0  0  0  0  0
    0.2508   -0.0409    8.8222 H   0  0  0  0  0  0  0  0  0  0  0  0
   23.8579    3.2362    4.7512 H   0  0  0  0  0  0  0  0  0  0  0  0
   23.8849    1.4918    4.2737 H   0  0  0  0  0  0  0  0  0  0  0  0
   -1.2608    2.2211    7.3560 H   0  0  0  0  0  0  0  0  0  0  0  0
   -1.2453    0.4764    6.8795 H   0  0  0  0  0  0  0  0  0  0  0  0
   25.3499    2.7262    6.6990 H   0  0  0  0  0  0  0  0  0  0  0  0
   25.3771    0.9818    6.2214 H   0  0  0  0  0  0  0  0  0  0  0  0
   -2.2768    1.6093    9.5636 H   0  0  0  0  0  0  0  0  0  0  0  0
   -2.2615   -0.1355    9.0870 H   0  0  0  0  0  0  0  0  0  0  0  0
   26.3976    1.6011    4.0179 H   0  0  0  0  0  0  0  0  0  0  0  0
   26.3702    3.3454    4.4955 H   0  0  0  0  0  0  0  0  0  0  0  0
   -3.7580    0.3820    7.1445 H   0  0  0  0  0  0  0  0  0  0  0  0
   -3.7731    2.1269    7.6210 H   0  0  0  0  0  0  0  0  0  0  0  0
   27.8625    2.8357    6.4433 H   0  0  0  0  0  0  0  0  0  0  0  0
   27.8900    1.0913    5.9657 H   0  0  0  0  0  0  0  0  0  0  0  0
   -4.7962    1.5140    9.8296 H   0  0  0  0  0  0  0  0  0  0  0  0
   -4.7811   -0.2293    9.3534 H   0  0  0  0  0  0  0  0  0  0  0  0
   28.8900    3.4547    4.2385 H   0  0  0  0  0  0  0  0  0  0  0  0
   28.9176    1.7118    3.7614 H   0  0  0  0  0  0  0  0  0  0  0  0
   -6.3075    2.0295    7.9014 H   0  0  0  0  0  0  0  0  0  0  0  0
   -6.2924    0.2826    7.4243 H   0  0  0  0  0  0  0  0  0  0  0  0
   -7.0194    0.7852    8.9977 H   0  0  0  0  0  0  0  0  0  0  0  0
   30.4248    1.2044    5.6950 H   0  0  0  0  0  0  0  0  0  0  0  0
   31.1332    2.4537    4.6021 H   0  0  0  0  0  0  0  0  0  0  0  0
   30.3972    2.9509    6.1731 H   0  0  0  0  0  0  0  0  0  0  0  0
  1  2  1  0  0  0  0
  1  4  1  0  0  0  0
  1 31  1  0  0  0  0
  1 32  1  0  0  0  0
  2  3  1  0  0  0  0
  2 33  1  0  0  0  0
  2 34  1  0  0  0  0
  3  5  1  0  0  0  0
  3 35  1  0  0  0  0
  3 36  1  0  0  0  0
  4  6  1  0  0  0  0
  4 37  1  0  0  0  0
  4 38  1  0  0  0  0
  5  7  1  0  0  0  0
  5 39  1  0  0  0  0
  5 40  1  0  0  0  0
  6  8  1  0  0  0  0
  6 41  1  0  0  0  0
  6 42  1  0  0  0  0
  7  9  1  0  0  0  0
  7 43  1  0  0  0  0
  7 44  1  0  0  0  0
  8 10  1  0  0  0  0
  8 45  1  0  0  0  0
  8 46  1  0  0  0  0
  9 11  1  0  0  0  0
  9 47  1  0  0  0  0
  9 48  1  0  0  0  0
 10 12  1  0  0  0  0
 10 49  1  0  0  0  0
 10 50  1  0  0  0  0
 11 13  1  0  0  0  0
 11 51  1  0  0  0  0
 11 52  1  0  0  0  0
 12 14  1  0  0  0  0
 12 53  1  0  0  0  0
 12 54  1  0  0  0  0
 13 15  1  0  0  0  0
 13 55  1  0  0  0  0
 13 56  1  0  0  0  0
 14 16  1  0  0  0  0
 14 57  1  0  0  0  0
 14 58  1  0  0  0  0
 15 17  1  0  0  0  0
 15 59  1  0  0  0  0
 15 60  1  0  0  0  0
 16 18  1  0  0  0  0
 16 61  1  0  0  0  0
 16 62  1  0  0  0  0
 17 19  1  0  0  0  0
 17 63  1  0  0  0  0
 17 64  1  0  0  0  0
 18 20  1  0  0  0  0
 18 65  1  0  0  0  0
 18 66  1  0  0  0  0
 19 21  1  0  0  0  0
 19 67  1  0  0  0  0
 19 68  1  0  0  0  0
 20 22  1  0  0  0  0
 20 69  1  0  0  0  0
 20 70  1  0  0  0  0
 21 23  1  0  0  0  0
 21 71  1  0  0  0  0
 21 72  1  0  0  0  0
 22 24  1  0  0  0  0
 22 73  1  0  0  0  0
 22 74  1  0  0  0  0
 23 25  1  0  0  0  0
 23 75  1  0  0  0  0
 23 76  1  0  0  0  0
 24 26  1  0  0  0  0
 24 77  1  0  0  0  0
 24 78  1  0  0  0  0
 25 27  1  0  0  0  0
 25 79  1  0  0  0  0
 25 80  1  0  0  0  0
 26 28  1  0  0  0  0
 26 81  1  0  0  0  0
 26 82  1  0  0  0  0
 27 29  1  0  0  0  0
 27 83  1  0  0  0  0
 27 84  1  0  0  0  0
 28 30  1  0  0  0  0
 28 85  1  0  0  0  0
 28 86  1  0  0  0  0
 29 87  1  0  0  0  0
 29 88  1  0  0  0  0
 29 89  1  0  0  0  0
 30 90  1  0  0  0  0
 30 91  1  0  0  0  0
 30 92  1  0  0  0  0
M  END
