  N-TRIACONTANE.mol	638-68-6
  NIST    07061505503D 1   1.00000 -1180.61200
Copyright by the U.S. Sec. Commerce on behalf of U.S.A. All rights reserved.
 92 91  0  0  0  0  0  0  0  0999 V2000
   14.5066    1.4514    7.1130 C    0  0  0  0  0  0  0  0  0  0  0  0
   13.1529    1.3535    6.3977 C    0  0  0  0  0  0  0  0  0  0  0  0
   11.9527    1.3653    7.3533 C    0  0  0  0  0  0  0  0  0  0  0  0
   15.7085    1.4382    6.1595 C    0  0  0  0  0  0  0  0  0  0  0  0
   10.5966    1.2976    6.6388 C    0  0  0  0  0  0  0  0  0  0  0  0
   17.0595    1.5680    6.8747 C    0  0  0  0  0  0  0  0  0  0  0  0
    9.3985    1.3076    7.5969 C    0  0  0  0  0  0  0  0  0  0  0  0
   18.2630    1.5540    5.9233 C    0  0  0  0  0  0  0  0  0  0  0  0
    8.0398    1.2666    6.8848 C    0  0  0  0  0  0  0  0  0  0  0  0
   19.6110    1.7147    6.6382 C    0  0  0  0  0  0  0  0  0  0  0  0
    6.8497    1.2740    7.8548 C    0  0  0  0  0  0  0  0  0  0  0  0
   20.8163    1.7009    5.6890 C    0  0  0  0  0  0  0  0  0  0  0  0
    5.4674    1.1850    7.1866 C    0  0  0  0  0  0  0  0  0  0  0  0
   22.1608    1.8887    6.4037 C    0  0  0  0  0  0  0  0  0  0  0  0
    5.0846    2.4037    6.3347 C    0  0  0  0  0  0  0  0  0  0  0  0
   23.3679    1.8756    5.4568 C    0  0  0  0  0  0  0  0  0  0  0  0
    3.6601    2.3252    5.7695 C    0  0  0  0  0  0  0  0  0  0  0  0
   24.7092    2.0846    6.1715 C    0  0  0  0  0  0  0  0  0  0  0  0
    3.2709    3.5409    4.9184 C    0  0  0  0  0  0  0  0  0  0  0  0
   25.9179    2.0723    5.2267 C    0  0  0  0  0  0  0  0  0  0  0  0
    1.8423    3.4714    4.3632 C    0  0  0  0  0  0  0  0  0  0  0  0
   27.2568    2.2960    5.9417 C    0  0  0  0  0  0  0  0  0  0  0  0
    1.4538    4.6911    3.5169 C    0  0  0  0  0  0  0  0  0  0  0  0
   28.4667    2.2840    4.9983 C    0  0  0  0  0  0  0  0  0  0  0  0
    0.0236    4.6156    2.9640 C    0  0  0  0  0  0  0  0  0  0  0  0
   29.8042    2.5157    5.7129 C    0  0  0  0  0  0  0  0  0  0  0  0
   -0.4293    5.8583    2.1790 C    0  0  0  0  0  0  0  0  0  0  0  0
   31.0147    2.5035    4.7705 C    0  0  0  0  0  0  0  0  0  0  0  0
    0.3479    6.1093    0.8812 C    0  0  0  0  0  0  0  0  0  0  0  0
   32.3458    2.7377    5.4920 C    0  0  0  0  0  0  0  0  0  0  0  0
   14.6011    0.6208    7.8283 H    0  0  0  0  0  0  0  0  0  0  0  0
   14.5317    2.3724    7.7146 H    0  0  0  0  0  0  0  0  0  0  0  0
   13.1264    0.4355    5.7919 H    0  0  0  0  0  0  0  0  0  0  0  0
   13.0585    2.1877    5.6865 H    0  0  0  0  0  0  0  0  0  0  0  0
   11.9906    2.2748    7.9713 H    0  0  0  0  0  0  0  0  0  0  0  0
   12.0374    0.5207    8.0534 H    0  0  0  0  0  0  0  0  0  0  0  0
   15.6955    0.5087    5.5709 H    0  0  0  0  0  0  0  0  0  0  0  0
   15.6039    2.2576    5.4327 H    0  0  0  0  0  0  0  0  0  0  0  0
   10.5574    0.3909    6.0168 H    0  0  0  0  0  0  0  0  0  0  0  0
   10.5119    2.1456    5.9428 H    0  0  0  0  0  0  0  0  0  0  0  0
   17.1645    0.7520    7.6053 H    0  0  0  0  0  0  0  0  0  0  0  0
   17.0709    2.5000    7.4594 H    0  0  0  0  0  0  0  0  0  0  0  0
    9.4751    0.4513    8.2836 H    0  0  0  0  0  0  0  0  0  0  0  0
    9.4479    2.2068    8.2291 H    0  0  0  0  0  0  0  0  0  0  0  0
   18.1485    2.3588    5.1818 H    0  0  0  0  0  0  0  0  0  0  0  0
   18.2637    0.6141    5.3515 H    0  0  0  0  0  0  0  0  0  0  0  0
    7.9861    0.3664    6.2538 H    0  0  0  0  0  0  0  0  0  0  0  0
    7.9711    2.1226    6.1994 H    0  0  0  0  0  0  0  0  0  0  0  0
   19.7259    0.9129    7.3829 H    0  0  0  0  0  0  0  0  0  0  0  0
   19.6085    2.6567    7.2067 H    0  0  0  0  0  0  0  0  0  0  0  0
    6.9588    0.4300    8.5510 H    0  0  0  0  0  0  0  0  0  0  0  0
    6.8929    2.1830    8.4737 H    0  0  0  0  0  0  0  0  0  0  0  0
   20.6933    2.4927    4.9350 H    0  0  0  0  0  0  0  0  0  0  0  0
   20.8294    0.7523    5.1317 H    0  0  0  0  0  0  0  0  0  0  0  0
    5.4218    0.2782    6.5650 H    0  0  0  0  0  0  0  0  0  0  0  0
    4.7077    1.0520    7.9703 H    0  0  0  0  0  0  0  0  0  0  0  0
   22.2841    1.0993    7.1601 H    0  0  0  0  0  0  0  0  0  0  0  0
   22.1458    2.8388    6.9584 H    0  0  0  0  0  0  0  0  0  0  0  0
    5.1820    3.3146    6.9448 H    0  0  0  0  0  0  0  0  0  0  0  0
    5.7932    2.5180    5.5028 H    0  0  0  0  0  0  0  0  0  0  0  0
   23.3914    0.9206    4.9109 H    0  0  0  0  0  0  0  0  0  0  0  0
   23.2385    2.6571    4.6932 H    0  0  0  0  0  0  0  0  0  0  0  0
    2.9462    2.2198    6.6001 H    0  0  0  0  0  0  0  0  0  0  0  0
    3.5582    1.4113    5.1654 H    0  0  0  0  0  0  0  0  0  0  0  0
   24.8388    1.3049    6.9369 H    0  0  0  0  0  0  0  0  0  0  0  0
   24.6842    3.0406    6.7156 H    0  0  0  0  0  0  0  0  0  0  0  0
    3.9801    3.6415    4.0833 H    0  0  0  0  0  0  0  0  0  0  0  0
    3.3814    4.4551    5.5206 H    0  0  0  0  0  0  0  0  0  0  0  0
   25.7844    2.8466    4.4565 H    0  0  0  0  0  0  0  0  0  0  0  0
   25.9490    1.1131    4.6887 H    0  0  0  0  0  0  0  0  0  0  0  0
    1.7317    2.5592    3.7579 H    0  0  0  0  0  0  0  0  0  0  0  0
    1.1331    3.3682    5.1980 H    0  0  0  0  0  0  0  0  0  0  0  0
   27.2249    3.2559    6.4784 H    0  0  0  0  0  0  0  0  0  0  0  0
   27.3904    1.5229    6.7131 H    0  0  0  0  0  0  0  0  0  0  0  0
    2.1702    4.7944    2.6902 H    0  0  0  0  0  0  0  0  0  0  0  0
    1.5579    5.6023    4.1255 H    0  0  0  0  0  0  0  0  0  0  0  0
   28.5019    1.3222    4.4651 H    0  0  0  0  0  0  0  0  0  0  0  0
   28.3309    3.0539    4.2242 H    0  0  0  0  0  0  0  0  0  0  0  0
   -0.6703    4.4567    3.8019 H    0  0  0  0  0  0  0  0  0  0  0  0
   -0.0702    3.7278    2.3204 H    0  0  0  0  0  0  0  0  0  0  0  0
   29.7698    3.4781    6.2454 H    0  0  0  0  0  0  0  0  0  0  0  0
   29.9410    1.7466    6.4879 H    0  0  0  0  0  0  0  0  0  0  0  0
   -0.3509    6.7425    2.8280 H    0  0  0  0  0  0  0  0  0  0  0  0
   -1.4961    5.7519    1.9396 H    0  0  0  0  0  0  0  0  0  0  0  0
   30.8777    3.2715    3.9958 H    0  0  0  0  0  0  0  0  0  0  0  0
   31.0504    1.5412    4.2399 H    0  0  0  0  0  0  0  0  0  0  0  0
    0.2888    5.2417    0.2116 H    0  0  0  0  0  0  0  0  0  0  0  0
   -0.0564    6.9733    0.3413 H    0  0  0  0  0  0  0  0  0  0  0  0
    1.4083    6.3085    1.0719 H    0  0  0  0  0  0  0  0  0  0  0  0
   32.5277    1.9647    6.2489 H    0  0  0  0  0  0  0  0  0  0  0  0
   33.1894    2.7232    4.7923 H    0  0  0  0  0  0  0  0  0  0  0  0
   32.3542    3.7082    6.0036 H    0  0  0  0  0  0  0  0  0  0  0  0
  1  2  1  0  0  0  0
  1  4  1  0  0  0  0
  1 31  1  0  0  0  0
  1 32  1  0  0  0  0
  2  3  1  0  0  0  0
  2 33  1  0  0  0  0
  2 34  1  0  0  0  0
  3  5  1  0  0  0  0
  3 35  1  0  0  0  0
  3 36  1  0  0  0  0
  4  6  1  0  0  0  0
  4 37  1  0  0  0  0
  4 38  1  0  0  0  0
  5  7  1  0  0  0  0
  5 39  1  0  0  0  0
  5 40  1  0  0  0  0
  6  8  1  0  0  0  0
  6 41  1  0  0  0  0
  6 42  1  0  0  0  0
  7  9  1  0  0  0  0
  7 43  1  0  0  0  0
  7 44  1  0  0  0  0
  8 10  1  0  0  0  0
  8 45  1  0  0  0  0
  8 46  1  0  0  0  0
  9 11  1  0  0  0  0
  9 47  1  0  0  0  0
  9 48  1  0  0  0  0
 10 12  1  0  0  0  0
 10 49  1  0  0  0  0
 10 50  1  0  0  0  0
 11 13  1  0  0  0  0
 11 51  1  0  0  0  0
 11 52  1  0  0  0  0
 12 14  1  0  0  0  0
 12 53  1  0  0  0  0
 12 54  1  0  0  0  0
 13 15  1  0  0  0  0
 13 55  1  0  0  0  0
 13 56  1  0  0  0  0
 14 16  1  0  0  0  0
 14 57  1  0  0  0  0
 14 58  1  0  0  0  0
 15 17  1  0  0  0  0
 15 59  1  0  0  0  0
 15 60  1  0  0  0  0
 16 18  1  0  0  0  0
 16 61  1  0  0  0  0
 16 62  1  0  0  0  0
 17 19  1  0  0  0  0
 17 63  1  0  0  0  0
 17 64  1  0  0  0  0
 18 20  1  0  0  0  0
 18 65  1  0  0  0  0
 18 66  1  0  0  0  0
 19 21  1  0  0  0  0
 19 67  1  0  0  0  0
 19 68  1  0  0  0  0
 20 22  1  0  0  0  0
 20 69  1  0  0  0  0
 20 70  1  0  0  0  0
 21 23  1  0  0  0  0
 21 71  1  0  0  0  0
 21 72  1  0  0  0  0
 22 24  1  0  0  0  0
 22 73  1  0  0  0  0
 22 74  1  0  0  0  0
 23 25  1  0  0  0  0
 23 75  1  0  0  0  0
 23 76  1  0  0  0  0
 24 26  1  0  0  0  0
 24 77  1  0  0  0  0
 24 78  1  0  0  0  0
 25 27  1  0  0  0  0
 25 79  1  0  0  0  0
 25 80  1  0  0  0  0
 26 28  1  0  0  0  0
 26 81  1  0  0  0  0
 26 82  1  0  0  0  0
 27 29  1  0  0  0  0
 27 83  1  0  0  0  0
 27 84  1  0  0  0  0
 28 30  1  0  0  0  0
 28 85  1  0  0  0  0
 28 86  1  0  0  0  0
 29 87  1  0  0  0  0
 29 88  1  0  0  0  0
 29 89  1  0  0  0  0
 30 90  1  0  0  0  0
 30 91  1  0  0  0  0
 30 92  1  0  0  0  0
M  END
