  N-TRIDECYLBENZENE.mol	123-02-4
  NIST    07011513493D 1   1.00000  -743.31892
Copyright by the U.S. Sec. Commerce on behalf of U.S.A. All rights reserved.
 51 51  0  0  0  0  0  0  0  0999 V2000
    0.8988    4.9325    7.3172 C    0  0  0  0  0  0  0  0  0  0  0  0
    0.5436    3.7642    6.3675 C    0  0  0  0  0  0  0  0  0  0  0  0
    1.4639    2.5598    6.4004 C    0  0  0  0  0  0  0  0  0  0  0  0
    2.1710    5.7310    6.9721 C    0  0  0  0  0  0  0  0  0  0  0  0
    1.5314    1.7407    7.5376 C    0  0  0  0  0  0  0  0  0  0  0  0
    2.2529    2.2187    5.2942 C    0  0  0  0  0  0  0  0  0  0  0  0
    3.4952    5.1001    7.4326 C    0  0  0  0  0  0  0  0  0  0  0  0
    2.3692    0.6266    7.5729 C    0  0  0  0  0  0  0  0  0  0  0  0
    3.0941    1.1041    5.3235 C    0  0  0  0  0  0  0  0  0  0  0  0
    4.7309    5.9834    7.1893 C    0  0  0  0  0  0  0  0  0  0  0  0
    3.1568    0.3045    6.4649 C    0  0  0  0  0  0  0  0  0  0  0  0
    5.0838    6.2006    5.7101 C    0  0  0  0  0  0  0  0  0  0  0  0
    6.3804    7.0004    5.5157 C    0  0  0  0  0  0  0  0  0  0  0  0
    6.7366    7.3146    4.0514 C    0  0  0  0  0  0  0  0  0  0  0  0
    7.1124    6.0829    3.2146 C    0  0  0  0  0  0  0  0  0  0  0  0
    7.4100    6.3442    1.7261 C    0  0  0  0  0  0  0  0  0  0  0  0
    8.6274    7.2473    1.4239 C    0  0  0  0  0  0  0  0  0  0  0  0
    8.3089    8.7400    1.2444 C    0  0  0  0  0  0  0  0  0  0  0  0
    9.5519    9.5816    0.9372 C    0  0  0  0  0  0  0  0  0  0  0  0
    0.0440    5.6221    7.3029 H    0  0  0  0  0  0  0  0  0  0  0  0
    0.9680    4.5598    8.3489 H    0  0  0  0  0  0  0  0  0  0  0  0
    0.4933    4.1510    5.3411 H    0  0  0  0  0  0  0  0  0  0  0  0
   -0.4742    3.4326    6.6168 H    0  0  0  0  0  0  0  0  0  0  0  0
    2.1926    5.9119    5.8881 H    0  0  0  0  0  0  0  0  0  0  0  0
    2.0887    6.7237    7.4388 H    0  0  0  0  0  0  0  0  0  0  0  0
    0.9170    1.9769    8.4040 H    0  0  0  0  0  0  0  0  0  0  0  0
    2.2071    2.8348    4.3986 H    0  0  0  0  0  0  0  0  0  0  0  0
    3.6440    4.1303    6.9437 H    0  0  0  0  0  0  0  0  0  0  0  0
    3.4211    4.8885    8.5090 H    0  0  0  0  0  0  0  0  0  0  0  0
    2.4046    0.0058    8.4647 H    0  0  0  0  0  0  0  0  0  0  0  0
    3.6974    0.8603    4.4526 H    0  0  0  0  0  0  0  0  0  0  0  0
    4.5852    6.9602    7.6752 H    0  0  0  0  0  0  0  0  0  0  0  0
    5.5941    5.5222    7.6905 H    0  0  0  0  0  0  0  0  0  0  0  0
    3.8088   -0.5646    6.4905 H    0  0  0  0  0  0  0  0  0  0  0  0
    4.2636    6.7270    5.2016 H    0  0  0  0  0  0  0  0  0  0  0  0
    5.1675    5.2201    5.2215 H    0  0  0  0  0  0  0  0  0  0  0  0
    7.2155    6.4571    5.9831 H    0  0  0  0  0  0  0  0  0  0  0  0
    6.2926    7.9483    6.0660 H    0  0  0  0  0  0  0  0  0  0  0  0
    7.5738    8.0245    4.0456 H    0  0  0  0  0  0  0  0  0  0  0  0
    5.8908    7.8353    3.5774 H    0  0  0  0  0  0  0  0  0  0  0  0
    7.9894    5.5995    3.6715 H    0  0  0  0  0  0  0  0  0  0  0  0
    6.3000    5.3461    3.2701 H    0  0  0  0  0  0  0  0  0  0  0  0
    6.5160    6.7665    1.2435 H    0  0  0  0  0  0  0  0  0  0  0  0
    7.5698    5.3675    1.2506 H    0  0  0  0  0  0  0  0  0  0  0  0
    9.1121    6.8963    0.5021 H    0  0  0  0  0  0  0  0  0  0  0  0
    9.3795    7.1257    2.2181 H    0  0  0  0  0  0  0  0  0  0  0  0
    7.8151    9.1329    2.1416 H    0  0  0  0  0  0  0  0  0  0  0  0
    7.5821    8.8506    0.4268 H    0  0  0  0  0  0  0  0  0  0  0  0
   10.2819    9.5238    1.7543 H    0  0  0  0  0  0  0  0  0  0  0  0
   10.0511    9.2325    0.0246 H    0  0  0  0  0  0  0  0  0  0  0  0
    9.2964   10.6378    0.7938 H    0  0  0  0  0  0  0  0  0  0  0  0
  1  2  1  0  0  0  0
  1  4  1  0  0  0  0
  1 20  1  0  0  0  0
  1 21  1  0  0  0  0
  2  3  1  0  0  0  0
  2 22  1  0  0  0  0
  2 23  1  0  0  0  0
  3  6  1  0  0  0  0
  4  7  1  0  0  0  0
  4 24  1  0  0  0  0
  4 25  1  0  0  0  0
  5  3  2  0  0  0  0
  5 26  1  0  0  0  0
  6  9  2  0  0  0  0
  6 27  1  0  0  0  0
  7 10  1  0  0  0  0
  7 28  1  0  0  0  0
  7 29  1  0  0  0  0
  8  5  1  0  0  0  0
  8 30  1  0  0  0  0
  9 11  1  0  0  0  0
  9 31  1  0  0  0  0
 10 12  1  0  0  0  0
 10 32  1  0  0  0  0
 10 33  1  0  0  0  0
 11  8  2  0  0  0  0
 11 34  1  0  0  0  0
 12 13  1  0  0  0  0
 12 35  1  0  0  0  0
 12 36  1  0  0  0  0
 13 14  1  0  0  0  0
 13 37  1  0  0  0  0
 13 38  1  0  0  0  0
 14 15  1  0  0  0  0
 14 39  1  0  0  0  0
 14 40  1  0  0  0  0
 15 16  1  0  0  0  0
 15 41  1  0  0  0  0
 15 42  1  0  0  0  0
 16 17  1  0  0  0  0
 16 43  1  0  0  0  0
 16 44  1  0  0  0  0
 17 18  1  0  0  0  0
 17 45  1  0  0  0  0
 17 46  1  0  0  0  0
 18 19  1  0  0  0  0
 18 47  1  0  0  0  0
 18 48  1  0  0  0  0
 19 49  1  0  0  0  0
 19 50  1  0  0  0  0
 19 51  1  0  0  0  0
M  END
