
 OpenBabel09281909313D

 35 34  0  0  0  0  0  0  0  0999 V2000
    6.6185    0.8018    7.8977 C   0  0  0  0  0  0  0  0  0  0  0  0
    7.5080    0.9930    9.1319 C   0  0  0  0  0  0  0  0  0  0  0  0
    7.9842   -0.3569    9.6815 C   0  0  0  0  0  0  0  0  0  0  0  0
    8.8735   -0.1651   10.9154 C   0  0  0  0  0  0  0  0  0  0  0  0
    9.3494   -1.5065   11.4654 C   0  0  0  0  0  0  0  0  0  0  0  0
    6.1423    2.1518    7.3481 C   0  0  0  0  0  0  0  0  0  0  0  0
    5.2527    1.9606    6.1139 C   0  0  0  0  0  0  0  0  0  0  0  0
    4.7766    3.3106    5.5644 C   0  0  0  0  0  0  0  0  0  0  0  0
    3.8870    3.1194    4.3302 C   0  0  0  0  0  0  0  0  0  0  0  0
    3.4113    4.4694    3.7813 C   0  0  0  0  0  0  0  0  0  0  0  0
    2.5255    4.2835    2.5528 C   0  0  0  0  0  0  0  0  0  0  0  0
    5.7343    0.1860    8.1746 H   0  0  0  0  0  0  0  0  0  0  0  0
    7.1941    0.2674    7.1098 H   0  0  0  0  0  0  0  0  0  0  0  0
    6.9324    1.5273    9.9198 H   0  0  0  0  0  0  0  0  0  0  0  0
    8.3923    1.6087    8.8550 H   0  0  0  0  0  0  0  0  0  0  0  0
    8.5600   -0.8914    8.8938 H   0  0  0  0  0  0  0  0  0  0  0  0
    7.1001   -0.9728    9.9587 H   0  0  0  0  0  0  0  0  0  0  0  0
    8.3028    0.3655   11.7086 H   0  0  0  0  0  0  0  0  0  0  0  0
    9.7615    0.4469   10.6447 H   0  0  0  0  0  0  0  0  0  0  0  0
    9.9900   -1.3373   12.3565 H   0  0  0  0  0  0  0  0  0  0  0  0
    9.9426   -2.0496   10.6990 H   0  0  0  0  0  0  0  0  0  0  0  0
    8.4810   -2.1311   11.7651 H   0  0  0  0  0  0  0  0  0  0  0  0
    7.0265    2.7675    7.0712 H   0  0  0  0  0  0  0  0  0  0  0  0
    5.5667    2.6861    8.1360 H   0  0  0  0  0  0  0  0  0  0  0  0
    4.3686    1.3448    6.3909 H   0  0  0  0  0  0  0  0  0  0  0  0
    5.8284    1.4262    5.3261 H   0  0  0  0  0  0  0  0  0  0  0  0
    5.6607    3.9264    5.2874 H   0  0  0  0  0  0  0  0  0  0  0  0
    4.2009    3.8449    6.3522 H   0  0  0  0  0  0  0  0  0  0  0  0
    3.0026    2.5038    4.6070 H   0  0  0  0  0  0  0  0  0  0  0  0
    4.4625    2.5852    3.5421 H   0  0  0  0  0  0  0  0  0  0  0  0
    4.2904    5.0889    3.4990 H   0  0  0  0  0  0  0  0  0  0  0  0
    2.8318    5.0076    4.5630 H   0  0  0  0  0  0  0  0  0  0  0  0
    2.1964    5.2753    2.1775 H   0  0  0  0  0  0  0  0  0  0  0  0
    1.6262    3.6851    2.8122 H   0  0  0  0  0  0  0  0  0  0  0  0
    3.0877    3.7666    1.7460 H   0  0  0  0  0  0  0  0  0  0  0  0
  1  2  1  0  0  0  0
  1  6  1  0  0  0  0
  1 12  1  0  0  0  0
  1 13  1  0  0  0  0
  2  3  1  0  0  0  0
  2 14  1  0  0  0  0
  2 15  1  0  0  0  0
  3  4  1  0  0  0  0
  3 16  1  0  0  0  0
  3 17  1  0  0  0  0
  4  5  1  0  0  0  0
  4 18  1  0  0  0  0
  4 19  1  0  0  0  0
  5 20  1  0  0  0  0
  5 21  1  0  0  0  0
  5 22  1  0  0  0  0
  6  7  1  0  0  0  0
  6 23  1  0  0  0  0
  6 24  1  0  0  0  0
  7  8  1  0  0  0  0
  7 25  1  0  0  0  0
  7 26  1  0  0  0  0
  8  9  1  0  0  0  0
  8 27  1  0  0  0  0
  8 28  1  0  0  0  0
  9 10  1  0  0  0  0
  9 29  1  0  0  0  0
  9 30  1  0  0  0  0
 10 11  1  0  0  0  0
 10 31  1  0  0  0  0
 10 32  1  0  0  0  0
 11 33  1  0  0  0  0
 11 34  1  0  0  0  0
 11 35  1  0  0  0  0
M  END
