  N-UNDECYLCYCLOHEXANE.mol	54105-66-7
  NIST    07061511533D 1   1.00000  -668.32456
Copyright by the U.S. Sec. Commerce on behalf of U.S.A. All rights reserved.
 51 51  0  0  0  0  0  0  0  0999 V2000
    5.7066    7.7348    3.3876 C    0  0  0  0  0  0  0  0  0  0  0  0
    4.2490    7.3391    3.1118 C    0  0  0  0  0  0  0  0  0  0  0  0
    3.3139    8.5020    2.7306 C    0  0  0  0  0  0  0  0  0  0  0  0
    6.5711    6.5643    3.8766 C    0  0  0  0  0  0  0  0  0  0  0  0
    1.8445    8.0381    2.6843 C    0  0  0  0  0  0  0  0  0  0  0  0
    3.6956    9.1704    1.3945 C    0  0  0  0  0  0  0  0  0  0  0  0
    8.0315    6.9615    4.1355 C    0  0  0  0  0  0  0  0  0  0  0  0
    0.8800    9.1753    2.3135 C    0  0  0  0  0  0  0  0  0  0  0  0
    2.7361   10.3111    1.0179 C    0  0  0  0  0  0  0  0  0  0  0  0
    8.9459    5.8106    4.5876 C    0  0  0  0  0  0  0  0  0  0  0  0
    1.2758    9.8382    0.9860 C    0  0  0  0  0  0  0  0  0  0  0  0
    8.6242    5.2424    5.9775 C    0  0  0  0  0  0  0  0  0  0  0  0
    9.6067    4.1553    6.4329 C    0  0  0  0  0  0  0  0  0  0  0  0
    9.3100    3.6279    7.8458 C    0  0  0  0  0  0  0  0  0  0  0  0
   10.2776    2.5379    8.3603 C    0  0  0  0  0  0  0  0  0  0  0  0
    9.8429    1.0816    8.1159 C    0  0  0  0  0  0  0  0  0  0  0  0
    9.7246    0.6563    6.6481 C    0  0  0  0  0  0  0  0  0  0  0  0
    6.1604    8.1577    2.4810 H    0  0  0  0  0  0  0  0  0  0  0  0
    5.7270    8.5372    4.1406 H    0  0  0  0  0  0  0  0  0  0  0  0
    3.8434    6.8480    4.0090 H    0  0  0  0  0  0  0  0  0  0  0  0
    4.2221    6.5801    2.3147 H    0  0  0  0  0  0  0  0  0  0  0  0
    3.3933    9.2681    3.5205 H    0  0  0  0  0  0  0  0  0  0  0  0
    6.1262    6.1490    4.7915 H    0  0  0  0  0  0  0  0  0  0  0  0
    6.5445    5.7552    3.1310 H    0  0  0  0  0  0  0  0  0  0  0  0
    1.5615    7.6053    3.6534 H    0  0  0  0  0  0  0  0  0  0  0  0
    1.7505    7.2283    1.9440 H    0  0  0  0  0  0  0  0  0  0  0  0
    4.7225    9.5533    1.4368 H    0  0  0  0  0  0  0  0  0  0  0  0
    3.6805    8.4066    0.6008 H    0  0  0  0  0  0  0  0  0  0  0  0
    8.0608    7.7628    4.8892 H    0  0  0  0  0  0  0  0  0  0  0  0
    8.4441    7.3984    3.2148 H    0  0  0  0  0  0  0  0  0  0  0  0
   -0.1485    8.7956    2.2592 H    0  0  0  0  0  0  0  0  0  0  0  0
    0.8908    9.9323    3.1119 H    0  0  0  0  0  0  0  0  0  0  0  0
    2.8363   11.1231    1.7536 H    0  0  0  0  0  0  0  0  0  0  0  0
    3.0208   10.7359    0.0466 H    0  0  0  0  0  0  0  0  0  0  0  0
    9.9857    6.1677    4.5875 H    0  0  0  0  0  0  0  0  0  0  0  0
    8.9047    5.0004    3.8441 H    0  0  0  0  0  0  0  0  0  0  0  0
    1.1480    9.1138    0.1677 H    0  0  0  0  0  0  0  0  0  0  0  0
    0.6067   10.6799    0.7649 H    0  0  0  0  0  0  0  0  0  0  0  0
    8.6277    6.0636    6.7106 H    0  0  0  0  0  0  0  0  0  0  0  0
    7.6054    4.8308    5.9883 H    0  0  0  0  0  0  0  0  0  0  0  0
    9.5962    3.3311    5.7077 H    0  0  0  0  0  0  0  0  0  0  0  0
   10.6295    4.5606    6.4137 H    0  0  0  0  0  0  0  0  0  0  0  0
    9.3390    4.4835    8.5348 H    0  0  0  0  0  0  0  0  0  0  0  0
    8.2775    3.2496    7.8880 H    0  0  0  0  0  0  0  0  0  0  0  0
   11.2740    2.6995    7.9224 H    0  0  0  0  0  0  0  0  0  0  0  0
   10.4053    2.6627    9.4438 H    0  0  0  0  0  0  0  0  0  0  0  0
   10.5632    0.4207    8.6177 H    0  0  0  0  0  0  0  0  0  0  0  0
    8.8792    0.9120    8.6179 H    0  0  0  0  0  0  0  0  0  0  0  0
    8.9329    1.2052    6.1266 H    0  0  0  0  0  0  0  0  0  0  0  0
    9.4875   -0.4113    6.5695 H    0  0  0  0  0  0  0  0  0  0  0  0
   10.6627    0.8289    6.1058 H    0  0  0  0  0  0  0  0  0  0  0  0
  1  2  1  0  0  0  0
  1  4  1  0  0  0  0
  1 18  1  0  0  0  0
  1 19  1  0  0  0  0
  2  3  1  0  0  0  0
  2 20  1  0  0  0  0
  2 21  1  0  0  0  0
  3  5  1  0  0  0  0
  3 22  1  0  0  0  0
  4  7  1  0  0  0  0
  4 23  1  0  0  0  0
  4 24  1  0  0  0  0
  5  8  1  0  0  0  0
  5 25  1  0  0  0  0
  5 26  1  0  0  0  0
  6  3  1  0  0  0  0
  6 27  1  0  0  0  0
  6 28  1  0  0  0  0
  7 10  1  0  0  0  0
  7 29  1  0  0  0  0
  7 30  1  0  0  0  0
  8 11  1  0  0  0  0
  8 31  1  0  0  0  0
  8 32  1  0  0  0  0
  9  6  1  0  0  0  0
  9 33  1  0  0  0  0
  9 34  1  0  0  0  0
 10 12  1  0  0  0  0
 10 35  1  0  0  0  0
 10 36  1  0  0  0  0
 11  9  1  0  0  0  0
 11 37  1  0  0  0  0
 11 38  1  0  0  0  0
 12 13  1  0  0  0  0
 12 39  1  0  0  0  0
 12 40  1  0  0  0  0
 13 14  1  0  0  0  0
 13 41  1  0  0  0  0
 13 42  1  0  0  0  0
 14 15  1  0  0  0  0
 14 43  1  0  0  0  0
 14 44  1  0  0  0  0
 15 16  1  0  0  0  0
 15 45  1  0  0  0  0
 15 46  1  0  0  0  0
 16 17  1  0  0  0  0
 16 47  1  0  0  0  0
 16 48  1  0  0  0  0
 17 49  1  0  0  0  0
 17 50  1  0  0  0  0
 17 51  1  0  0  0  0
M  END
