  OLEIC ACID.mol	112-80-1
  NIST    07021513063D 1   1.00000  -856.86878
Copyright by the U.S. Sec. Commerce on behalf of U.S.A. All rights reserved.
 54 53  0  0  0  0  0  0  0  0999 V2000
    2.0188   84.4794    0.5731 O    0  0  0  0  0  0  0  0  0  0  0  0
    0.6856   84.6999    0.7165 C    0  0  0  0  0  0  0  0  0  0  0  0
   -0.1276   83.5445    0.1748 C    0  0  0  0  0  0  0  0  0  0  0  0
    0.2475   85.7103    1.2205 O    0  0  0  0  0  0  0  0  0  0  0  0
   -1.6366   83.7452    0.3260 C    0  0  0  0  0  0  0  0  0  0  0  0
   -2.4486   82.5704   -0.2325 C    0  0  0  0  0  0  0  0  0  0  0  0
   -9.5070   80.0717   -0.3198 C    0  0  0  0  0  0  0  0  0  0  0  0
   -8.6045   80.8314   -0.9535 C    0  0  0  0  0  0  0  0  0  0  0  0
   -9.2857   78.7735    0.4104 C    0  0  0  0  0  0  0  0  0  0  0  0
   -7.1194   80.6127   -1.0739 C    0  0  0  0  0  0  0  0  0  0  0  0
   -6.2980   81.7740   -0.4807 C    0  0  0  0  0  0  0  0  0  0  0  0
   -4.7841   81.5923   -0.6475 C    0  0  0  0  0  0  0  0  0  0  0  0
   -3.9636   82.7572   -0.0792 C    0  0  0  0  0  0  0  0  0  0  0  0
  -10.9763   71.2616    0.7101 C    0  0  0  0  0  0  0  0  0  0  0  0
  -11.1679   72.5929   -0.0277 C    0  0  0  0  0  0  0  0  0  0  0  0
  -11.7239   70.0947    0.0566 C    0  0  0  0  0  0  0  0  0  0  0  0
  -10.4227   73.7676    0.6190 C    0  0  0  0  0  0  0  0  0  0  0  0
  -10.6087   75.0961   -0.1254 C    0  0  0  0  0  0  0  0  0  0  0  0
   -9.8629   76.2717    0.5193 C    0  0  0  0  0  0  0  0  0  0  0  0
  -10.0378   77.5940   -0.2378 C    0  0  0  0  0  0  0  0  0  0  0  0
    2.4610   85.2662    0.9440 H    0  0  0  0  0  0  0  0  0  0  0  0
    0.1525   83.4053   -0.8784 H    0  0  0  0  0  0  0  0  0  0  0  0
    0.2071   82.6320    0.6867 H    0  0  0  0  0  0  0  0  0  0  0  0
   -1.8746   83.8941    1.3867 H    0  0  0  0  0  0  0  0  0  0  0  0
   -1.9275   84.6749   -0.1787 H    0  0  0  0  0  0  0  0  0  0  0  0
   -2.2058   82.4296   -1.2965 H    0  0  0  0  0  0  0  0  0  0  0  0
   -2.1448   81.6412    0.2725 H    0  0  0  0  0  0  0  0  0  0  0  0
  -10.5461   80.4059   -0.3422 H    0  0  0  0  0  0  0  0  0  0  0  0
   -8.9672   81.7394   -1.4394 H    0  0  0  0  0  0  0  0  0  0  0  0
   -8.2180   78.5323    0.4710 H    0  0  0  0  0  0  0  0  0  0  0  0
   -9.6359   78.8813    1.4489 H    0  0  0  0  0  0  0  0  0  0  0  0
   -6.8188   79.6734   -0.5954 H    0  0  0  0  0  0  0  0  0  0  0  0
   -6.8573   80.5116   -2.1391 H    0  0  0  0  0  0  0  0  0  0  0  0
   -6.6073   82.7157   -0.9576 H    0  0  0  0  0  0  0  0  0  0  0  0
   -6.5425   81.8787    0.5854 H    0  0  0  0  0  0  0  0  0  0  0  0
   -4.4743   80.6566   -0.1586 H    0  0  0  0  0  0  0  0  0  0  0  0
   -4.5485   81.4685   -1.7153 H    0  0  0  0  0  0  0  0  0  0  0  0
   -4.2063   82.8887    0.9855 H    0  0  0  0  0  0  0  0  0  0  0  0
   -4.2658   83.6908   -0.5762 H    0  0  0  0  0  0  0  0  0  0  0  0
   -9.9035   71.0267    0.7599 H    0  0  0  0  0  0  0  0  0  0  0  0
  -11.3108   71.3732    1.7514 H    0  0  0  0  0  0  0  0  0  0  0  0
  -12.2418   72.8271   -0.0786 H    0  0  0  0  0  0  0  0  0  0  0  0
  -10.8335   72.4802   -1.0700 H    0  0  0  0  0  0  0  0  0  0  0  0
  -11.5658   69.1593    0.6055 H    0  0  0  0  0  0  0  0  0  0  0  0
  -12.8041   70.2839    0.0251 H    0  0  0  0  0  0  0  0  0  0  0  0
  -11.3869   69.9364   -0.9754 H    0  0  0  0  0  0  0  0  0  0  0  0
   -9.3497   73.5301    0.6741 H    0  0  0  0  0  0  0  0  0  0  0  0
  -10.7607   73.8832    1.6597 H    0  0  0  0  0  0  0  0  0  0  0  0
  -11.6814   75.3339   -0.1815 H    0  0  0  0  0  0  0  0  0  0  0  0
  -10.2701   74.9792   -1.1656 H    0  0  0  0  0  0  0  0  0  0  0  0
   -8.7915   76.0296    0.5842 H    0  0  0  0  0  0  0  0  0  0  0  0
  -10.2082   76.3971    1.5565 H    0  0  0  0  0  0  0  0  0  0  0  0
  -11.1080   77.8393   -0.3029 H    0  0  0  0  0  0  0  0  0  0  0  0
   -9.6900   77.4756   -1.2733 H    0  0  0  0  0  0  0  0  0  0  0  0
  1  2  1  0
  2  3  1  0
  2  4  2  0
  3  5  1  0
  5  6  1  0
  6 13  1  0
  7  8  2  0
  7  9  1  0
  8 10  1  0
  9 20  1  0
 10 11  1  0
 11 12  1  0
 12 13  1  0
 14 15  1  0
 14 16  1  0
 15 17  1  0
 17 18  1  0
 18 19  1  0
 19 20  1  0
  1 21  1  0
  3 22  1  0
  3 23  1  0
  5 24  1  0
  5 25  1  0
  6 26  1  0
  6 27  1  0
  7 28  1  0
  8 29  1  0
  9 30  1  0
  9 31  1  0
 10 32  1  0
 10 33  1  0
 11 34  1  0
 11 35  1  0
 12 36  1  0
 12 37  1  0
 13 38  1  0
 13 39  1  0
 14 40  1  0
 14 41  1  0
 15 42  1  0
 15 43  1  0
 16 44  1  0
 16 45  1  0
 16 46  1  0
 17 47  1  0
 17 48  1  0
 18 49  1  0
 18 50  1  0
 19 51  1  0
 19 52  1  0
 20 53  1  0
 20 54  1  0
M  END
