  PERFLUORODECANE.mol	307-45-9
  NIST    07091508243D 1   1.00000 -2577.47887
Copyright by the U.S. Sec. Commerce on behalf of U.S.A. All rights reserved.
 32 31  0  0  0  0  0  0  0  0999 V2000
    1.1132   20.8077    0.0564 F    0  0  0  0  0  0  0  0  0  0  0  0
    1.2751   20.1225   -1.0804 C    0  0  0  0  0  0  0  0  0  0  0  0
    0.0902   20.0234   -1.6954 F    0  0  0  0  0  0  0  0  0  0  0  0
    2.1229   20.7798   -1.8811 F    0  0  0  0  0  0  0  0  0  0  0  0
    1.8004   18.6941   -0.7804 C    0  0  0  0  0  0  0  0  0  0  0  0
    0.9617   18.1345    0.1142 F    0  0  0  0  0  0  0  0  0  0  0  0
    1.7375   17.9903   -1.9406 F    0  0  0  0  0  0  0  0  0  0  0  0
    3.2605   18.6256   -0.2111 C    0  0  0  0  0  0  0  0  0  0  0  0
    3.5973   19.8503    0.2683 F    0  0  0  0  0  0  0  0  0  0  0  0
    3.3012   17.7531    0.8155 F    0  0  0  0  0  0  0  0  0  0  0  0
    4.3656   18.2422   -1.2444 C    0  0  0  0  0  0  0  0  0  0  0  0
    4.2849   19.1105   -2.2740 F    0  0  0  0  0  0  0  0  0  0  0  0
    5.5486   18.4389   -0.6067 F    0  0  0  0  0  0  0  0  0  0  0  0
    4.3244   16.7689   -1.8045 C    0  0  0  0  0  0  0  0  0  0  0  0
    3.3803   16.0625   -1.1319 F    0  0  0  0  0  0  0  0  0  0  0  0
    3.9863   16.7973   -3.1100 F    0  0  0  0  0  0  0  0  0  0  0  0
    5.6409   15.9385   -1.6715 C    0  0  0  0  0  0  0  0  0  0  0  0
    5.9961   15.8867   -0.3731 F    0  0  0  0  0  0  0  0  0  0  0  0
    5.3189   14.6811   -2.0689 F    0  0  0  0  0  0  0  0  0  0  0  0
    6.8548   16.4663   -2.5239 C    0  0  0  0  0  0  0  0  0  0  0  0
    6.5525   17.7120   -2.9753 F    0  0  0  0  0  0  0  0  0  0  0  0
    7.9457   16.5564   -1.7362 F    0  0  0  0  0  0  0  0  0  0  0  0
    7.2207   15.6263   -3.7872 C    0  0  0  0  0  0  0  0  0  0  0  0
    6.0863   15.3555   -4.4657 F    0  0  0  0  0  0  0  0  0  0  0  0
    7.9975   16.4159   -4.5709 F    0  0  0  0  0  0  0  0  0  0  0  0
    7.9953   14.2889   -3.5118 C    0  0  0  0  0  0  0  0  0  0  0  0
    7.7858   13.8915   -2.2315 F    0  0  0  0  0  0  0  0  0  0  0  0
    7.5183   13.3420   -4.3451 F    0  0  0  0  0  0  0  0  0  0  0  0
    9.5315   14.3632   -3.7237 C    0  0  0  0  0  0  0  0  0  0  0  0
   10.0566   15.3804   -3.0291 F    0  0  0  0  0  0  0  0  0  0  0  0
   10.0790   13.2197   -3.2941 F    0  0  0  0  0  0  0  0  0  0  0  0
    9.8181   14.5163   -5.0206 F    0  0  0  0  0  0  0  0  0  0  0  0
  1  2  1  0  0  0  0
  2  3  1  0  0  0  0
  2  4  1  0  0  0  0
  2  5  1  0  0  0  0
  5  6  1  0  0  0  0
  5  7  1  0  0  0  0
  5  8  1  0  0  0  0
  8  9  1  0  0  0  0
  8 10  1  0  0  0  0
  8 11  1  0  0  0  0
 11 12  1  0  0  0  0
 11 13  1  0  0  0  0
 11 14  1  0  0  0  0
 14 15  1  0  0  0  0
 14 16  1  0  0  0  0
 14 17  1  0  0  0  0
 17 18  1  0  0  0  0
 17 19  1  0  0  0  0
 17 20  1  0  0  0  0
 20 21  1  0  0  0  0
 20 22  1  0  0  0  0
 20 23  1  0  0  0  0
 23 24  1  0  0  0  0
 23 25  1  0  0  0  0
 23 26  1  0  0  0  0
 26 27  1  0  0  0  0
 26 28  1  0  0  0  0
 26 29  1  0  0  0  0
 29 30  1  0  0  0  0
 29 31  1  0  0  0  0
 29 32  1  0  0  0  0
M  END
