
 OpenBabel02061908463D

 26 27  0  0  0  0  0  0  0  0999 V2000
    0.3247    1.6779    0.0509 C   0  0  1  0  0  0  0  0  0  0  0  0
    1.5055    1.1702    0.8477 C   0  0  0  0  0  0  0  0  0  0  0  0
   -1.1040    1.1611    0.3182 C   0  0  0  0  0  0  0  0  0  0  0  0
    0.4663    3.1106   -0.5621 C   0  0  0  0  0  0  0  0  0  0  0  0
    1.1125    0.4954   -0.4996 C   0  0  1  0  0  0  0  0  0  0  0  0
   -1.0451   -0.3546    0.4462 C   0  0  0  0  0  0  0  0  0  0  0  0
    0.2133   -0.6774   -0.2736 C   0  0  0  0  0  0  0  0  0  0  0  0
    0.5571   -1.9221   -0.6159 C   0  0  0  0  0  0  0  0  0  0  0  0
   -0.1047    4.1542    0.4074 C   0  0  0  0  0  0  0  0  0  0  0  0
    1.8928    3.5317   -0.9697 C   0  0  0  0  0  0  0  0  0  0  0  0
    1.2971    0.5013    1.7109 H   0  0  0  0  0  0  0  0  0  0  0  0
    2.5407    1.5299    0.6920 H   0  0  0  0  0  0  0  0  0  0  0  0
   -1.6576    1.3782   -0.6230 H   0  0  0  0  0  0  0  0  0  0  0  0
   -1.6502    1.6465    1.1537 H   0  0  0  0  0  0  0  0  0  0  0  0
   -0.1481    3.1294   -1.4889 H   0  0  0  0  0  0  0  0  0  0  0  0
    1.3415    0.7744   -1.5484 H   0  0  0  0  0  0  0  0  0  0  0  0
   -1.9639   -0.8087    0.0153 H   0  0  0  0  0  0  0  0  0  0  0  0
   -0.9083   -0.6812    1.4996 H   0  0  0  0  0  0  0  0  0  0  0  0
    1.5045   -2.1143   -1.1101 H   0  0  0  0  0  0  0  0  0  0  0  0
   -0.1068   -2.7544   -0.4038 H   0  0  0  0  0  0  0  0  0  0  0  0
    0.4771    4.1634    1.3541 H   0  0  0  0  0  0  0  0  0  0  0  0
   -1.1671    3.9364    0.6420 H   0  0  0  0  0  0  0  0  0  0  0  0
   -0.0653    5.1672   -0.0474 H   0  0  0  0  0  0  0  0  0  0  0  0
    2.5624    3.6128   -0.0886 H   0  0  0  0  0  0  0  0  0  0  0  0
    1.8644    4.5301   -1.4563 H   0  0  0  0  0  0  0  0  0  0  0  0
    2.3285    2.8216   -1.7013 H   0  0  0  0  0  0  0  0  0  0  0  0
  1  2  1  0  0  0  0
  1  4  1  6  0  0  0
  2  5  1  0  0  0  0
  2 11  1  0  0  0  0
  2 12  1  0  0  0  0
  3  1  1  0  0  0  0
  3 13  1  0  0  0  0
  3 14  1  0  0  0  0
  4  9  1  0  0  0  0
  4 10  1  0  0  0  0
  4 15  1  0  0  0  0
  5  1  1  0  0  0  0
  5  7  1  0  0  0  0
  5 16  1  6  0  0  0
  6  3  1  0  0  0  0
  6 17  1  0  0  0  0
  6 18  1  0  0  0  0
  7  6  1  0  0  0  0
  7  8  2  0  0  0  0
  8 19  1  0  0  0  0
  8 20  1  0  0  0  0
  9 21  1  0  0  0  0
  9 22  1  0  0  0  0
  9 23  1  0  0  0  0
 10 24  1  0  0  0  0
 10 25  1  0  0  0  0
 10 26  1  0  0  0  0
M  END
