
 OpenBabel08211715523D

 45 46  0  0  0  0  0  0  0  0999 V2000
    0.5424   -0.0887    0.8737 C   0  0  2  0  0  0  0  0  0  0  0  0
    1.2300    1.1088    1.5558 C   0  0  1  0  0  0  0  0  0  0  0  0
    2.2599    0.6503    2.3928 O   0  0  0  0  0  0  0  0  0  0  0  0
    0.4564    1.6464    2.1557 H   0  0  0  0  0  0  0  0  0  0  0  0
    1.7984    2.0406    0.4754 C   0  0  1  0  0  0  0  0  0  0  0  0
    0.6736    2.4373   -0.4958 C   0  0  2  0  0  0  0  0  0  0  0  0
    2.5879    1.4764   -0.0791 H   0  0  0  0  0  0  0  0  0  0  0  0
    2.3516    3.1813    1.0797 O   0  0  0  0  0  0  0  0  0  0  0  0
   -0.1067    3.0212    0.0502 H   0  0  0  0  0  0  0  0  0  0  0  0
    0.0045    1.1495   -1.0396 C   0  0  2  0  0  0  0  0  0  0  0  0
    1.2072    3.1953   -1.5512 O   0  0  0  0  0  0  0  0  0  0  0  0
    0.7385    0.5470   -1.6253 H   0  0  0  0  0  0  0  0  0  0  0  0
   -1.1695    1.4612   -1.9797 C   0  0  0  0  0  0  0  0  0  0  0  0
   -0.5056    0.3814    0.0400 O   0  0  0  0  0  0  0  0  0  0  0  0
   -0.0187   -0.9091    1.8859 O   0  0  0  0  0  0  0  0  0  0  0  0
    1.3134   -0.6335    0.2820 H   0  0  0  0  0  0  0  0  0  0  0  0
    1.2081    4.1432   -1.2561 H   0  0  0  0  0  0  0  0  0  0  0  0
    3.0481    3.5273    0.4626 H   0  0  0  0  0  0  0  0  0  0  0  0
    2.4147    1.3562    3.0734 H   0  0  0  0  0  0  0  0  0  0  0  0
   -0.0453   -2.3104    1.6058 C   0  0  1  0  0  0  0  0  0  0  0  0
    1.3836   -2.9146    1.5537 C   0  0  2  0  0  0  0  0  0  0  0  0
    1.0845   -4.3286    1.9699 C   0  0  2  0  0  0  0  0  0  0  0  0
    2.1860   -2.2888    2.5290 O   0  0  0  0  0  0  0  0  0  0  0  0
    0.5870   -4.8485    1.1207 H   0  0  0  0  0  0  0  0  0  0  0  0
    0.1138   -4.0377    3.1123 C   0  0  1  0  0  0  0  0  0  0  0  0
    2.2311   -5.0302    2.3718 O   0  0  0  0  0  0  0  0  0  0  0  0
   -0.6929   -2.9440    2.7047 O   0  0  0  0  0  0  0  0  0  0  0  0
    0.6855   -3.7094    4.0111 H   0  0  0  0  0  0  0  0  0  0  0  0
   -0.7435   -5.2479    3.4952 C   0  0  0  0  0  0  0  0  0  0  0  0
   -0.9128   -2.6409    0.3528 C   0  0  0  0  0  0  0  0  0  0  0  0
   -0.2969   -2.2176   -0.8325 O   0  0  0  0  0  0  0  0  0  0  0  0
   -1.9016   -2.1430    0.4726 H   0  0  0  0  0  0  0  0  0  0  0  0
   -1.0937   -3.7333    0.2770 H   0  0  0  0  0  0  0  0  0  0  0  0
   -0.9644   -2.3475   -1.5552 H   0  0  0  0  0  0  0  0  0  0  0  0
   -0.0814   -6.0787    3.8257 H   0  0  0  0  0  0  0  0  0  0  0  0
   -1.5203   -5.6584    2.4038 O   0  0  0  0  0  0  0  0  0  0  0  0
   -1.4106   -4.9524    4.3355 H   0  0  0  0  0  0  0  0  0  0  0  0
   -2.0510   -6.4347    2.7204 H   0  0  0  0  0  0  0  0  0  0  0  0
    1.9582   -5.9780    2.4781 H   0  0  0  0  0  0  0  0  0  0  0  0
    3.1242   -2.5578    2.3473 H   0  0  0  0  0  0  0  0  0  0  0  0
   -0.7346    2.1327   -3.1333 O   0  0  0  0  0  0  0  0  0  0  0  0
   -1.9531    2.0432   -1.4387 H   0  0  0  0  0  0  0  0  0  0  0  0
   -1.6452    0.5094   -2.2994 H   0  0  0  0  0  0  0  0  0  0  0  0
    1.8791   -2.8222    0.5600 H   0  0  0  0  0  0  0  0  0  0  0  0
   -1.0134    3.0814   -3.0451 H   0  0  0  0  0  0  0  0  0  0  0  0
  1  2  1  0  0  0  0
  1 16  1  6  0  0  0
  2  4  1  1  0  0  0
  3  2  1  0  0  0  0
  5  2  1  0  0  0  0
  5  7  1  6  0  0  0
  6  5  1  0  0  0  0
  6  9  1  1  0  0  0
  8  5  1  0  0  0  0
 10  6  1  0  0  0  0
 10 12  1  6  0  0  0
 11  6  1  0  0  0  0
 13 10  1  0  0  0  0
 14 10  1  0  0  0  0
 14  1  1  0  0  0  0
 15  1  1  0  0  0  0
 17 11  1  0  0  0  0
 18  8  1  0  0  0  0
 19  3  1  0  0  0  0
 20 15  1  1  0  0  0
 21 20  1  0  0  0  0
 21 44  1  6  0  0  0
 22 21  1  0  0  0  0
 22 24  1  6  0  0  0
 23 21  1  0  0  0  0
 25 22  1  0  0  0  0
 25 27  1  0  0  0  0
 25 28  1  1  0  0  0
 26 22  1  0  0  0  0
 27 20  1  0  0  0  0
 29 25  1  0  0  0  0
 30 20  1  0  0  0  0
 31 30  1  0  0  0  0
 32 30  1  0  0  0  0
 33 30  1  0  0  0  0
 34 31  1  0  0  0  0
 35 29  1  0  0  0  0
 36 29  1  0  0  0  0
 37 29  1  0  0  0  0
 38 36  1  0  0  0  0
 39 26  1  0  0  0  0
 40 23  1  0  0  0  0
 41 13  1  0  0  0  0
 42 13  1  0  0  0  0
 43 13  1  0  0  0  0
 45 41  1  0  0  0  0
M  END
