
 OpenBabel09301909353D

 56 55  0  0  0  0  0  0  0  0999 V2000
   -7.2646    1.6195    0.3684 C   0  0  0  0  0  0  0  0  0  0  0  0
   -6.0266    0.8781   -0.1278 C   0  0  0  0  0  0  0  0  0  0  0  0
   -7.2531    1.6917    1.4769 H   0  0  0  0  0  0  0  0  0  0  0  0
   -7.3012    2.6423   -0.0638 H   0  0  0  0  0  0  0  0  0  0  0  0
   -8.1776    1.0694    0.0575 H   0  0  0  0  0  0  0  0  0  0  0  0
   -4.7426    1.6082    0.2826 C   0  0  0  0  0  0  0  0  0  0  0  0
   -6.0269   -0.1476    0.3016 H   0  0  0  0  0  0  0  0  0  0  0  0
   -6.0750    0.8010   -1.2360 H   0  0  0  0  0  0  0  0  0  0  0  0
   -3.5011    0.8603   -0.2177 C   0  0  0  0  0  0  0  0  0  0  0  0
   -4.7509    2.6343   -0.1471 H   0  0  0  0  0  0  0  0  0  0  0  0
   -4.7028    1.6849    1.3917 H   0  0  0  0  0  0  0  0  0  0  0  0
   -2.2166    1.5903    0.1925 C   0  0  0  0  0  0  0  0  0  0  0  0
   -3.4931   -0.1659    0.2119 H   0  0  0  0  0  0  0  0  0  0  0  0
   -3.5413    0.7835   -1.3268 H   0  0  0  0  0  0  0  0  0  0  0  0
   -0.9748    0.8427   -0.3078 C   0  0  0  0  0  0  0  0  0  0  0  0
   -2.2248    2.6165   -0.2371 H   0  0  0  0  0  0  0  0  0  0  0  0
   -2.1765    1.6670    1.3016 H   0  0  0  0  0  0  0  0  0  0  0  0
    0.3093    1.5733    0.1024 C   0  0  0  0  0  0  0  0  0  0  0  0
   -0.9664   -0.1834    0.1218 H   0  0  0  0  0  0  0  0  0  0  0  0
   -1.0149    0.7660   -1.4170 H   0  0  0  0  0  0  0  0  0  0  0  0
    1.5515    0.8264   -0.3978 C   0  0  0  0  0  0  0  0  0  0  0  0
    0.3007    2.5994   -0.3271 H   0  0  0  0  0  0  0  0  0  0  0  0
    0.3493    1.6500    1.2115 H   0  0  0  0  0  0  0  0  0  0  0  0
    2.8352    1.5576    0.0125 C   0  0  0  0  0  0  0  0  0  0  0  0
    1.5604   -0.1998    0.0318 H   0  0  0  0  0  0  0  0  0  0  0  0
    1.5116    0.7497   -1.5069 H   0  0  0  0  0  0  0  0  0  0  0  0
    4.0779    0.8116   -0.4876 C   0  0  0  0  0  0  0  0  0  0  0  0
    2.8259    2.5838   -0.4170 H   0  0  0  0  0  0  0  0  0  0  0  0
    2.8751    1.6344    1.1217 H   0  0  0  0  0  0  0  0  0  0  0  0
    5.3610    1.5437   -0.0772 C   0  0  0  0  0  0  0  0  0  0  0  0
    4.0875   -0.2146   -0.0581 H   0  0  0  0  0  0  0  0  0  0  0  0
    4.0381    0.7349   -1.5968 H   0  0  0  0  0  0  0  0  0  0  0  0
    6.6043    0.7985   -0.5773 C   0  0  0  0  0  0  0  0  0  0  0  0
    5.4008    1.6204    1.0320 H   0  0  0  0  0  0  0  0  0  0  0  0
    5.3511    2.5699   -0.5067 H   0  0  0  0  0  0  0  0  0  0  0  0
    7.8870    1.5314   -0.1668 C   0  0  0  0  0  0  0  0  0  0  0  0
    6.5645    0.7218   -1.6864 H   0  0  0  0  0  0  0  0  0  0  0  0
    6.6145   -0.2277   -0.1478 H   0  0  0  0  0  0  0  0  0  0  0  0
    9.1306    0.7870   -0.6669 C   0  0  0  0  0  0  0  0  0  0  0  0
    7.8764    2.5576   -0.5962 H   0  0  0  0  0  0  0  0  0  0  0  0
    7.9266    1.6081    0.9424 H   0  0  0  0  0  0  0  0  0  0  0  0
   10.4130    1.5206   -0.2563 C   0  0  0  0  0  0  0  0  0  0  0  0
    9.0909    0.7103   -1.7760 H   0  0  0  0  0  0  0  0  0  0  0  0
    9.1414   -0.2392   -0.2373 H   0  0  0  0  0  0  0  0  0  0  0  0
   11.6571    0.7767   -0.7565 C   0  0  0  0  0  0  0  0  0  0  0  0
   10.4524    1.5973    0.8528 H   0  0  0  0  0  0  0  0  0  0  0  0
   10.4021    2.5468   -0.6858 H   0  0  0  0  0  0  0  0  0  0  0  0
   12.9382    1.5101   -0.3448 C   0  0  0  0  0  0  0  0  0  0  0  0
   11.6153    0.7000   -1.8657 H   0  0  0  0  0  0  0  0  0  0  0  0
   11.6694   -0.2496   -0.3269 H   0  0  0  0  0  0  0  0  0  0  0  0
   14.1535    0.7793   -0.8381 C   0  0  0  0  0  0  0  0  0  0  0  0
   12.9749    1.5907    0.7644 H   0  0  0  0  0  0  0  0  0  0  0  0
   12.9412    2.5354   -0.7736 H   0  0  0  0  0  0  0  0  0  0  0  0
   14.9810    0.3612   -0.0420 O   0  0  0  0  0  0  0  0  0  0  0  0
   14.3356    0.5924   -2.1629 O   0  0  0  0  0  0  0  0  0  0  0  0
   15.1137    0.1262   -2.5001 H   0  0  0  0  0  0  0  0  0  0  0  0
  1  2  1  0  0  0  0
  1  3  1  0  0  0  0
  1  4  1  0  0  0  0
  1  5  1  0  0  0  0
  2  6  1  0  0  0  0
  2  7  1  0  0  0  0
  2  8  1  0  0  0  0
  6  9  1  0  0  0  0
  6 10  1  0  0  0  0
  6 11  1  0  0  0  0
  9 12  1  0  0  0  0
  9 13  1  0  0  0  0
  9 14  1  0  0  0  0
 12 15  1  0  0  0  0
 12 16  1  0  0  0  0
 12 17  1  0  0  0  0
 15 18  1  0  0  0  0
 15 19  1  0  0  0  0
 15 20  1  0  0  0  0
 18 21  1  0  0  0  0
 18 22  1  0  0  0  0
 18 23  1  0  0  0  0
 21 24  1  0  0  0  0
 21 25  1  0  0  0  0
 21 26  1  0  0  0  0
 24 27  1  0  0  0  0
 24 28  1  0  0  0  0
 24 29  1  0  0  0  0
 27 30  1  0  0  0  0
 27 31  1  0  0  0  0
 27 32  1  0  0  0  0
 30 33  1  0  0  0  0
 30 34  1  0  0  0  0
 30 35  1  0  0  0  0
 33 36  1  0  0  0  0
 33 37  1  0  0  0  0
 33 38  1  0  0  0  0
 36 39  1  0  0  0  0
 36 40  1  0  0  0  0
 36 41  1  0  0  0  0
 39 42  1  0  0  0  0
 39 43  1  0  0  0  0
 39 44  1  0  0  0  0
 42 45  1  0  0  0  0
 42 46  1  0  0  0  0
 42 47  1  0  0  0  0
 45 48  1  0  0  0  0
 45 49  1  0  0  0  0
 45 50  1  0  0  0  0
 48 51  1  0  0  0  0
 48 52  1  0  0  0  0
 48 53  1  0  0  0  0
 51 54  2  0  0  0  0
 51 55  1  0  0  0  0
 55 56  1  0  0  0  0
M  END
