  TETRAPHENYLETHYLENE.mol	632-51-9
  NIST    07011518283D 1   1.00000 -1002.80517
Copyright by the U.S. Sec. Commerce on behalf of U.S.A. All rights reserved.
 46 49  0  0  0  0  0  0  0  0999 V2000
    5.0777    5.9675    3.2241 C    0  0  0  0  0  0  0  0  0  0  0  0
    6.0872    5.0511    3.3116 C    0  0  0  0  0  0  0  0  0  0  0  0
    7.4687    5.3227    2.8077 C    0  0  0  0  0  0  0  0  0  0  0  0
    5.8999    3.6967    3.9170 C    0  0  0  0  0  0  0  0  0  0  0  0
    5.3171    7.4005    2.8704 C    0  0  0  0  0  0  0  0  0  0  0  0
    3.6454    5.6182    3.4742 C    0  0  0  0  0  0  0  0  0  0  0  0
    7.6877    5.8185    1.5113 C    0  0  0  0  0  0  0  0  0  0  0  0
    8.5900    5.0287    3.6037 C    0  0  0  0  0  0  0  0  0  0  0  0
    6.3853    2.5497    3.2643 C    0  0  0  0  0  0  0  0  0  0  0  0
    5.2909    3.5363    5.1733 C    0  0  0  0  0  0  0  0  0  0  0  0
    6.2983    8.1602    3.5298 C    0  0  0  0  0  0  0  0  0  0  0  0
    4.5197    8.0415    1.9058 C    0  0  0  0  0  0  0  0  0  0  0  0
    3.0436    4.5141    2.8468 C    0  0  0  0  0  0  0  0  0  0  0  0
    2.8467    6.4272    4.3017 C    0  0  0  0  0  0  0  0  0  0  0  0
    8.9803    6.0320    1.0348 C    0  0  0  0  0  0  0  0  0  0  0  0
    9.8824    5.2538    3.1325 C    0  0  0  0  0  0  0  0  0  0  0  0
    6.2375    1.2851    3.8317 C    0  0  0  0  0  0  0  0  0  0  0  0
    5.1530    2.2731    5.7466 C    0  0  0  0  0  0  0  0  0  0  0  0
    6.4898    9.5061    3.2213 C    0  0  0  0  0  0  0  0  0  0  0  0
    4.7187    9.3841    1.5881 C    0  0  0  0  0  0  0  0  0  0  0  0
    1.6975    4.2176    3.0553 C    0  0  0  0  0  0  0  0  0  0  0  0
    1.5038    6.1242    4.5203 C    0  0  0  0  0  0  0  0  0  0  0  0
   10.0834    5.7560    1.8450 C    0  0  0  0  0  0  0  0  0  0  0  0
    5.6206    1.1411    5.0763 C    0  0  0  0  0  0  0  0  0  0  0  0
    5.7050   10.1230    2.2452 C    0  0  0  0  0  0  0  0  0  0  0  0
    0.9227    5.0176    3.8974 C    0  0  0  0  0  0  0  0  0  0  0  0
    6.8346    6.0345    0.8756 H    0  0  0  0  0  0  0  0  0  0  0  0
    8.4413    4.6246    4.6011 H    0  0  0  0  0  0  0  0  0  0  0  0
    6.8779    2.6552    2.3018 H    0  0  0  0  0  0  0  0  0  0  0  0
    4.9264    4.4121    5.7009 H    0  0  0  0  0  0  0  0  0  0  0  0
    6.9113    7.6881    4.2911 H    0  0  0  0  0  0  0  0  0  0  0  0
    3.7414    7.4766    1.4004 H    0  0  0  0  0  0  0  0  0  0  0  0
    3.6397    3.8881    2.1901 H    0  0  0  0  0  0  0  0  0  0  0  0
    3.2884    7.2975    4.7790 H    0  0  0  0  0  0  0  0  0  0  0  0
    9.1253    6.4112    0.0265 H    0  0  0  0  0  0  0  0  0  0  0  0
   10.7341    5.0313    3.7703 H    0  0  0  0  0  0  0  0  0  0  0  0
    6.6092    0.4112    3.3028 H    0  0  0  0  0  0  0  0  0  0  0  0
    4.6828    2.1743    6.7216 H    0  0  0  0  0  0  0  0  0  0  0  0
    7.2517   10.0748    3.7482 H    0  0  0  0  0  0  0  0  0  0  0  0
    4.0987    9.8552    0.8296 H    0  0  0  0  0  0  0  0  0  0  0  0
    1.2523    3.3614    2.5549 H    0  0  0  0  0  0  0  0  0  0  0  0
    0.9090    6.7567    5.1745 H    0  0  0  0  0  0  0  0  0  0  0  0
   11.0910    5.9240    1.4739 H    0  0  0  0  0  0  0  0  0  0  0  0
    5.5119    0.1562    5.5228 H    0  0  0  0  0  0  0  0  0  0  0  0
    5.8555   11.1719    2.0037 H    0  0  0  0  0  0  0  0  0  0  0  0
   -0.1262    4.7852    4.0611 H    0  0  0  0  0  0  0  0  0  0  0  0
  1  2  2  0  0  0  0
  1  5  1  0  0  0  0
  1  6  1  0  0  0  0
  2  3  1  0  0  0  0
  2  4  1  0  0  0  0
  3  8  1  0  0  0  0
  4 10  1  0  0  0  0
  5 12  1  0  0  0  0
  6 13  2  0  0  0  0
  7  3  2  0  0  0  0
  7 27  1  0  0  0  0
  8 16  2  0  0  0  0
  8 28  1  0  0  0  0
  9  4  2  0  0  0  0
  9 29  1  0  0  0  0
 10 18  2  0  0  0  0
 10 30  1  0  0  0  0
 11  5  2  0  0  0  0
 11 31  1  0  0  0  0
 12 20  2  0  0  0  0
 12 32  1  0  0  0  0
 13 21  1  0  0  0  0
 13 33  1  0  0  0  0
 14  6  1  0  0  0  0
 14 34  1  0  0  0  0
 15  7  1  0  0  0  0
 15 35  1  0  0  0  0
 16 23  1  0  0  0  0
 16 36  1  0  0  0  0
 17  9  1  0  0  0  0
 17 37  1  0  0  0  0
 18 24  1  0  0  0  0
 18 38  1  0  0  0  0
 19 11  1  0  0  0  0
 19 39  1  0  0  0  0
 20 25  1  0  0  0  0
 20 40  1  0  0  0  0
 21 26  2  0  0  0  0
 21 41  1  0  0  0  0
 22 14  2  0  0  0  0
 22 42  1  0  0  0  0
 23 15  2  0  0  0  0
 23 43  1  0  0  0  0
 24 17  2  0  0  0  0
 24 44  1  0  0  0  0
 25 19  2  0  0  0  0
 25 45  1  0  0  0  0
 26 22  1  0  0  0  0
 26 46  1  0  0  0  0
M  END
