
 OpenBabel02061908473D

 26 28  0  0  0  0  0  0  0  0999 V2000
   -0.8530    0.7851    0.3169 C   0  0  1  0  0  0  0  0  0  0  0  0
    0.5771    1.1768    0.6596 C   0  0  0  0  0  0  0  0  0  0  0  0
   -0.7972   -0.0049   -0.9805 C   0  0  2  0  0  0  0  0  0  0  0  0
   -0.8720   -0.7484    0.3431 C   0  0  1  0  0  0  0  0  0  0  0  0
    1.2641   -0.0140   -0.0190 C   0  0  2  0  0  0  0  0  0  0  0  0
    0.6552   -0.0309   -1.4466 C   0  0  0  0  0  0  0  0  0  0  0  0
    0.5481   -1.1636    0.6995 C   0  0  0  0  0  0  0  0  0  0  0  0
    1.0284    1.1968   -2.3154 C   0  0  0  0  0  0  0  0  0  0  0  0
    0.9974   -1.2964   -2.2728 C   0  0  0  0  0  0  0  0  0  0  0  0
   -2.0209   -0.0053   -1.8934 C   0  0  0  0  0  0  0  0  0  0  0  0
   -1.7998    1.2818    0.6166 H   0  0  0  0  0  0  0  0  0  0  0  0
    0.7516    1.2001    1.7588 H   0  0  0  0  0  0  0  0  0  0  0  0
    0.8614    2.1676    0.2565 H   0  0  0  0  0  0  0  0  0  0  0  0
   -1.8307   -1.2109    0.6593 H   0  0  0  0  0  0  0  0  0  0  0  0
    2.3727   -0.0266    0.0486 H   0  0  0  0  0  0  0  0  0  0  0  0
    0.8075   -2.1743    0.3307 H   0  0  0  0  0  0  0  0  0  0  0  0
    0.7224   -1.1536    1.7990 H   0  0  0  0  0  0  0  0  0  0  0  0
    0.7431    2.1663   -1.8672 H   0  0  0  0  0  0  0  0  0  0  0  0
    0.5003    1.1477   -3.2919 H   0  0  0  0  0  0  0  0  0  0  0  0
    2.1221    1.2081   -2.5096 H   0  0  0  0  0  0  0  0  0  0  0  0
    0.6884   -2.2426   -1.7918 H   0  0  0  0  0  0  0  0  0  0  0  0
    2.0904   -1.3414   -2.4660 H   0  0  0  0  0  0  0  0  0  0  0  0
    0.4703   -1.2676   -3.2506 H   0  0  0  0  0  0  0  0  0  0  0  0
   -1.9928    0.8870   -2.5520 H   0  0  0  0  0  0  0  0  0  0  0  0
   -2.9618    0.0164   -1.3032 H   0  0  0  0  0  0  0  0  0  0  0  0
   -2.0153   -0.9202   -2.5210 H   0  0  0  0  0  0  0  0  0  0  0  0
  1  2  1  0  0  0  0
  1 11  1  1  0  0  0
  2  5  1  0  0  0  0
  2 12  1  0  0  0  0
  2 13  1  0  0  0  0
  3  1  1  0  0  0  0
  3  4  1  0  0  0  0
  3 10  1  6  0  0  0
  4  1  1  0  0  0  0
  4 14  1  1  0  0  0
  5  7  1  0  0  0  0
  5 15  1  1  0  0  0
  6  3  1  0  0  0  0
  6  5  1  0  0  0  0
  6  8  1  0  0  0  0
  6  9  1  0  0  0  0
  7  4  1  0  0  0  0
  7 16  1  0  0  0  0
  7 17  1  0  0  0  0
  8 18  1  0  0  0  0
  8 19  1  0  0  0  0
  8 20  1  0  0  0  0
  9 21  1  0  0  0  0
  9 22  1  0  0  0  0
  9 23  1  0  0  0  0
 10 24  1  0  0  0  0
 10 25  1  0  0  0  0
 10 26  1  0  0  0  0
M  END
