
 OpenBabel09181910003D

 27 28  0  0  0  0  0  0  0  0999 V2000
    1.6812   -0.4588   -2.9604 C   0  0  0  0  0  0  0  0  0  0  0  0
    0.7481   -1.1103   -3.7656 C   0  0  0  0  0  0  0  0  0  0  0  0
    0.3635   -2.4065   -3.5267 C   0  0  0  0  0  0  0  0  0  0  0  0
    0.8920   -3.1383   -2.4602 C   0  0  0  0  0  0  0  0  0  0  0  0
    1.8360   -2.5054   -1.6310 C   0  0  0  0  0  0  0  0  0  0  0  0
    2.2286   -1.1724   -1.8798 C   0  0  0  0  0  0  0  0  0  0  0  0
    0.1095   -0.6124   -4.8376 N   0  0  0  0  0  0  0  0  0  0  0  0
   -0.6952   -1.5975   -5.2945 C   0  0  0  0  0  0  0  0  0  0  0  0
   -0.5615   -2.7369   -4.5024 C   0  0  0  0  0  0  0  0  0  0  0  0
   -1.2882   -4.0497   -4.6698 C   0  0  0  0  0  0  0  0  0  0  0  0
   -0.9438   -4.7833   -5.9844 C   0  0  1  0  0  0  0  0  0  0  0  0
   -1.4052   -4.0063   -7.1968 C   0  0  0  0  0  0  0  0  0  0  0  0
   -2.7147   -3.7074   -7.3343 O   0  0  0  0  0  0  0  0  0  0  0  0
    0.4956   -5.0568   -6.0470 N   0  0  0  0  0  0  0  0  0  0  0  0
   -0.6082   -3.6480   -8.0525 O   0  0  0  0  0  0  0  0  0  0  0  0
    1.9754    0.5636   -3.1594 H   0  0  0  0  0  0  0  0  0  0  0  0
    0.5937   -4.1598   -2.2679 H   0  0  0  0  0  0  0  0  0  0  0  0
    2.2645   -3.0446   -0.7962 H   0  0  0  0  0  0  0  0  0  0  0  0
    2.9556   -0.6963   -1.2348 H   0  0  0  0  0  0  0  0  0  0  0  0
    0.2093    0.3461   -5.2399 H   0  0  0  0  0  0  0  0  0  0  0  0
   -1.3446   -1.4879   -6.1519 H   0  0  0  0  0  0  0  0  0  0  0  0
   -1.0225   -4.7252   -3.8302 H   0  0  0  0  0  0  0  0  0  0  0  0
   -2.3829   -3.8688   -4.6080 H   0  0  0  0  0  0  0  0  0  0  0  0
   -1.4912   -5.7528   -5.9886 H   0  0  0  0  0  0  0  0  0  0  0  0
   -3.0414   -3.2080   -8.0960 H   0  0  0  0  0  0  0  0  0  0  0  0
    0.7742   -5.6331   -5.2195 H   0  0  0  0  0  0  0  0  0  0  0  0
    0.7014   -5.6273   -6.8996 H   0  0  0  0  0  0  0  0  0  0  0  0
  1  2  1  0  0  0  0
  1 16  1  0  0  0  0
  2  7  1  0  0  0  0
  3  2  2  0  0  0  0
  3  4  1  0  0  0  0
  4  5  2  0  0  0  0
  4 17  1  0  0  0  0
  5  6  1  0  0  0  0
  5 18  1  0  0  0  0
  6  1  2  0  0  0  0
  6 19  1  0  0  0  0
  7  8  1  0  0  0  0
  7 20  1  0  0  0  0
  8  9  2  0  0  0  0
  8 21  1  0  0  0  0
  9  3  1  0  0  0  0
  9 10  1  0  0  0  0
 10 11  1  0  0  0  0
 10 22  1  0  0  0  0
 10 23  1  0  0  0  0
 11 12  1  0  0  0  0
 11 14  1  0  0  0  0
 11 24  1  1  0  0  0
 12 13  1  0  0  0  0
 12 15  2  0  0  0  0
 13 25  1  0  0  0  0
 14 26  1  0  0  0  0
 14 27  1  0  0  0  0
M  END
