
 OpenBabel09301909283D

 31 31  0  0  0  0  0  0  0  0999 V2000
   -6.5514   -0.3849    1.7027 C   0  0  0  0  0  0  0  0  0  0  0  0
   -5.5615   -0.0755    0.6419 N   0  3  0  0  0  0  0  0  0  0  0  0
   -6.8713    0.5249    2.2490 H   0  0  0  0  0  0  0  0  0  0  0  0
   -6.1149   -1.0255    2.4947 H   0  0  0  0  0  0  0  0  0  0  0  0
   -7.4531   -0.8792    1.2784 H   0  0  0  0  0  0  0  0  0  0  0  0
   -4.3536    0.5269    1.2613 C   0  0  0  0  0  0  0  0  0  0  0  0
   -6.1588    0.8635   -0.3667 C   0  0  0  0  0  0  0  0  0  0  0  0
   -3.8625   -0.1823    1.9626 H   0  0  0  0  0  0  0  0  0  0  0  0
   -4.6031    1.4235    1.8663 H   0  0  0  0  0  0  0  0  0  0  0  0
   -3.6082    0.8173    0.4879 H   0  0  0  0  0  0  0  0  0  0  0  0
   -5.4218    1.0575   -1.1806 H   0  0  0  0  0  0  0  0  0  0  0  0
   -6.6087    2.2463    0.1531 C   0  0  0  0  0  0  0  0  0  0  0  0
   -7.0477    0.3862   -0.8407 H   0  0  0  0  0  0  0  0  0  0  0  0
   -5.1650   -1.3119   -0.1152 C   0  0  0  0  0  0  0  0  0  0  0  0
   -4.5010   -2.4208    0.6929 C   0  0  0  0  0  0  0  0  0  0  0  0
   -4.4498   -1.0131   -0.9171 H   0  0  0  0  0  0  0  0  0  0  0  0
   -6.0346   -1.7551   -0.6519 H   0  0  0  0  0  0  0  0  0  0  0  0
   -5.7438    2.7976    0.5778 H   0  0  0  0  0  0  0  0  0  0  0  0
   -7.4072    2.1372    0.9155 H   0  0  0  0  0  0  0  0  0  0  0  0
   -7.1227    2.9850   -0.9206 O   0  0  0  0  0  0  0  0  0  0  0  0
   -7.3897    3.8663   -0.5498 H   0  0  0  0  0  0  0  0  0  0  0  0
   -5.2512   -3.2531    1.5455 C   0  0  0  0  0  0  0  0  0  0  0  0
   -4.6261   -4.2771    2.2636 C   0  0  0  0  0  0  0  0  0  0  0  0
   -3.2518   -4.4872    2.1335 C   0  0  0  0  0  0  0  0  0  0  0  0
   -2.4998   -3.6786    1.2789 C   0  0  0  0  0  0  0  0  0  0  0  0
   -3.1191   -2.6540    0.5569 C   0  0  0  0  0  0  0  0  0  0  0  0
   -6.3199   -3.1210    1.6459 H   0  0  0  0  0  0  0  0  0  0  0  0
   -5.2096   -4.9117    2.9180 H   0  0  0  0  0  0  0  0  0  0  0  0
   -2.7706   -5.2812    2.6898 H   0  0  0  0  0  0  0  0  0  0  0  0
   -1.4357   -3.8466    1.1738 H   0  0  0  0  0  0  0  0  0  0  0  0
   -2.5209   -2.0375   -0.1024 H   0  0  0  0  0  0  0  0  0  0  0  0
  1  2  1  0  0  0  0
  1  3  1  0  0  0  0
  1  4  1  0  0  0  0
  1  5  1  0  0  0  0
  2  6  1  0  0  0  0
  2  7  1  0  0  0  0
  2 14  1  0  0  0  0
  6  8  1  0  0  0  0
  6  9  1  0  0  0  0
  6 10  1  0  0  0  0
  7 11  1  0  0  0  0
  7 12  1  0  0  0  0
  7 13  1  0  0  0  0
 12 18  1  0  0  0  0
 12 19  1  0  0  0  0
 12 20  1  0  0  0  0
 14 15  1  0  0  0  0
 14 16  1  0  0  0  0
 14 17  1  0  0  0  0
 15 22  2  0  0  0  0
 20 21  1  0  0  0  0
 22 23  1  0  0  0  0
 22 27  1  0  0  0  0
 23 24  2  0  0  0  0
 23 28  1  0  0  0  0
 24 25  1  0  0  0  0
 24 29  1  0  0  0  0
 25 26  2  0  0  0  0
 25 30  1  0  0  0  0
 26 15  1  0  0  0  0
 26 31  1  0  0  0  0
M  CHG  1   2   1
M  END
