
 OpenBabel09161910473D

 25 25  0  0  0  0  0  0  0  0999 V2000
   -0.9908    0.6327   -0.8046 C   0  0  0  0  0  0  0  0  0  0  0  0
   -1.9072   -0.1445    0.1469 C   0  0  0  0  0  0  0  0  0  0  0  0
   -3.3724   -0.0372   -0.2904 C   0  0  0  0  0  0  0  0  0  0  0  0
   -4.2877   -0.8073    0.6571 C   0  0  0  0  0  0  0  0  0  0  0  0
    0.4034    0.5338   -0.3747 N   0  3  0  0  0  0  0  0  0  0  0  0
    1.1456   -0.5877   -0.2749 C   0  0  0  0  0  0  0  0  0  0  0  0
    2.3918   -0.3048    0.1491 N   0  0  0  0  0  0  0  0  0  0  0  0
    2.4424    1.0310    0.3209 C   0  0  0  0  0  0  0  0  0  0  0  0
    1.2068    1.5525   -0.0061 C   0  0  0  0  0  0  0  0  0  0  0  0
    3.4679   -1.2614    0.3736 C   0  0  0  0  0  0  0  0  0  0  0  0
   -1.0823    0.2296   -1.8366 H   0  0  0  0  0  0  0  0  0  0  0  0
   -1.3035    1.7004   -0.8165 H   0  0  0  0  0  0  0  0  0  0  0  0
   -1.6071   -1.2149    0.1582 H   0  0  0  0  0  0  0  0  0  0  0  0
   -1.7960    0.2689    1.1735 H   0  0  0  0  0  0  0  0  0  0  0  0
   -3.6828    1.0305   -0.2996 H   0  0  0  0  0  0  0  0  0  0  0  0
   -3.4874   -0.4511   -1.3159 H   0  0  0  0  0  0  0  0  0  0  0  0
   -5.3404   -0.7123    0.3168 H   0  0  0  0  0  0  0  0  0  0  0  0
   -4.0135   -1.8837    0.6689 H   0  0  0  0  0  0  0  0  0  0  0  0
   -4.2086   -0.3989    1.6872 H   0  0  0  0  0  0  0  0  0  0  0  0
    0.7891   -1.5841   -0.5057 H   0  0  0  0  0  0  0  0  0  0  0  0
    3.3095    1.5849    0.6566 H   0  0  0  0  0  0  0  0  0  0  0  0
    0.9182    2.5952    0.0238 H   0  0  0  0  0  0  0  0  0  0  0  0
    3.6955   -1.7961   -0.5724 H   0  0  0  0  0  0  0  0  0  0  0  0
    4.3859   -0.7416    0.7220 H   0  0  0  0  0  0  0  0  0  0  0  0
    3.1579   -1.9975    1.1448 H   0  0  0  0  0  0  0  0  0  0  0  0
  1  2  1  0  0  0  0
  1  5  1  0  0  0  0
  1 11  1  0  0  0  0
  1 12  1  0  0  0  0
  2  3  1  0  0  0  0
  2 13  1  0  0  0  0
  2 14  1  0  0  0  0
  3  4  1  0  0  0  0
  3 15  1  0  0  0  0
  3 16  1  0  0  0  0
  4 17  1  0  0  0  0
  4 18  1  0  0  0  0
  4 19  1  0  0  0  0
  5  6  2  0  0  0  0
  5  9  1  0  0  0  0
  6  7  1  0  0  0  0
  6 20  1  0  0  0  0
  7  8  1  0  0  0  0
  7 10  1  0  0  0  0
  8  9  2  0  0  0  0
  8 21  1  0  0  0  0
  9 22  1  0  0  0  0
 10 23  1  0  0  0  0
 10 24  1  0  0  0  0
 10 25  1  0  0  0  0
M  CHG  1   5   1
M  END
