
 OpenBabel08281909493D

 33 33  0  0  0  0  0  0  0  0999 V2000
   -3.8379   -0.1401    0.4308 C   0  0  0  0  0  0  0  0  0  0  0  0
   -2.9008    1.0632    0.4948 C   0  0  0  0  0  0  0  0  0  0  0  0
   -1.7215    0.8386   -0.4481 C   0  0  0  0  0  0  0  0  0  0  0  0
   -2.5245    1.1861    1.5347 H   0  0  0  0  0  0  0  0  0  0  0  0
   -3.4474    1.9880    0.2111 H   0  0  0  0  0  0  0  0  0  0  0  0
   -3.0629   -1.4237    0.7910 C   0  0  0  0  0  0  0  0  0  0  0  0
   -4.2864   -0.2156   -0.5803 H   0  0  0  0  0  0  0  0  0  0  0  0
   -4.6749    0.0027    1.1478 H   0  0  0  0  0  0  0  0  0  0  0  0
   -1.8622   -1.6705   -0.0726 N   0  3  0  0  0  0  0  0  0  0  0  0
   -3.7641   -2.2883    0.7495 H   0  0  0  0  0  0  0  0  0  0  0  0
   -2.7472   -1.3129    1.8550 H   0  0  0  0  0  0  0  0  0  0  0  0
   -2.2891   -2.0166   -1.4564 C   0  0  0  0  0  0  0  0  0  0  0  0
   -1.4200   -2.1386   -2.1349 H   0  0  0  0  0  0  0  0  0  0  0  0
   -2.9148   -1.2344   -1.9239 H   0  0  0  0  0  0  0  0  0  0  0  0
   -2.8822   -2.9580   -1.4673 H   0  0  0  0  0  0  0  0  0  0  0  0
   -0.9817   -0.4596   -0.0670 C   0  0  0  0  0  0  0  0  0  0  0  0
   -1.1355   -2.8382    0.5301 C   0  0  0  0  0  0  0  0  0  0  0  0
    0.1621   -3.2803   -0.1916 C   0  0  0  0  0  0  0  0  0  0  0  0
   -1.8158   -3.7210    0.5682 H   0  0  0  0  0  0  0  0  0  0  0  0
   -0.8578   -2.6015    1.5837 H   0  0  0  0  0  0  0  0  0  0  0  0
    0.8034   -4.4713    0.5332 C   0  0  0  0  0  0  0  0  0  0  0  0
    0.8986   -2.4510   -0.2061 H   0  0  0  0  0  0  0  0  0  0  0  0
   -0.0577   -3.5937   -1.2323 H   0  0  0  0  0  0  0  0  0  0  0  0
    2.0848   -4.9195   -0.1646 C   0  0  0  0  0  0  0  0  0  0  0  0
    0.0907   -5.3245    0.5542 H   0  0  0  0  0  0  0  0  0  0  0  0
    1.0479   -4.1855    1.5796 H   0  0  0  0  0  0  0  0  0  0  0  0
    1.8671   -5.2339   -1.2076 H   0  0  0  0  0  0  0  0  0  0  0  0
    2.5245   -5.7804    0.3816 H   0  0  0  0  0  0  0  0  0  0  0  0
    2.8260   -4.0922   -0.1799 H   0  0  0  0  0  0  0  0  0  0  0  0
   -1.0218    1.6991   -0.3785 H   0  0  0  0  0  0  0  0  0  0  0  0
   -2.0820    0.7900   -1.4965 H   0  0  0  0  0  0  0  0  0  0  0  0
   -0.1324   -0.5777   -0.7734 H   0  0  0  0  0  0  0  0  0  0  0  0
   -0.5534   -0.3110    0.9513 H   0  0  0  0  0  0  0  0  0  0  0  0
  1  2  1  0  0  0  0
  1  6  1  0  0  0  0
  1  7  1  0  0  0  0
  1  8  1  0  0  0  0
  2  3  1  0  0  0  0
  2  4  1  0  0  0  0
  2  5  1  0  0  0  0
  3 16  1  0  0  0  0
  3 30  1  0  0  0  0
  3 31  1  0  0  0  0
  6  9  1  0  0  0  0
  6 10  1  0  0  0  0
  6 11  1  0  0  0  0
  9 12  1  0  0  0  0
  9 17  1  0  0  0  0
 12 13  1  0  0  0  0
 12 14  1  0  0  0  0
 12 15  1  0  0  0  0
 16  9  1  0  0  0  0
 16 32  1  0  0  0  0
 16 33  1  0  0  0  0
 17 18  1  0  0  0  0
 17 19  1  0  0  0  0
 17 20  1  0  0  0  0
 18 21  1  0  0  0  0
 18 22  1  0  0  0  0
 18 23  1  0  0  0  0
 21 24  1  0  0  0  0
 21 25  1  0  0  0  0
 21 26  1  0  0  0  0
 24 27  1  0  0  0  0
 24 28  1  0  0  0  0
 24 29  1  0  0  0  0
M  CHG  1   9   1
M  END
