
 OpenBabel01121809513D

 27 27  0  0  0  0  0  0  0  0999 V2000
    0.1211    1.1999    0.7450 N   0  0  0  0  0  0  0  0  0  0  0  0
    0.5684    2.3295    1.3892 C   0  0  0  0  0  0  0  0  0  0  0  0
    0.1038    3.5939    1.0179 C   0  0  0  0  0  0  0  0  0  0  0  0
   -0.8253    3.7150   -0.0186 C   0  0  0  0  0  0  0  0  0  0  0  0
   -0.7895    1.3142   -0.2715 C   0  0  0  0  0  0  0  0  0  0  0  0
   -1.2733    2.5630   -0.6663 C   0  0  0  0  0  0  0  0  0  0  0  0
    1.2857    2.2760    2.1943 H   0  0  0  0  0  0  0  0  0  0  0  0
    0.4682    4.4715    1.5375 H   0  0  0  0  0  0  0  0  0  0  0  0
   -1.9933    2.6310   -1.4726 H   0  0  0  0  0  0  0  0  0  0  0  0
   -1.1478    0.4292   -0.7851 H   0  0  0  0  0  0  0  0  0  0  0  0
    0.5779   -0.1638    1.0954 C   0  0  0  0  0  0  0  0  0  0  0  0
   -1.3411    5.0600   -0.4377 C   0  0  0  0  0  0  0  0  0  0  0  0
   -0.8938    5.8767    0.1682 H   0  0  0  0  0  0  0  0  0  0  0  0
   -2.4437    5.0928   -0.3109 H   0  0  0  0  0  0  0  0  0  0  0  0
   -1.0928    5.2388   -1.5050 H   0  0  0  0  0  0  0  0  0  0  0  0
    1.6002   -0.2481    2.2436 C   0  0  0  0  0  0  0  0  0  0  0  0
    1.0361   -0.6235    0.1914 H   0  0  0  0  0  0  0  0  0  0  0  0
   -0.3113   -0.7690    1.3808 H   0  0  0  0  0  0  0  0  0  0  0  0
    1.9986   -1.7036    2.5173 C   0  0  0  0  0  0  0  0  0  0  0  0
    1.1526    0.1792    3.1678 H   0  0  0  0  0  0  0  0  0  0  0  0
    2.5123    0.3259    1.9685 H   0  0  0  0  0  0  0  0  0  0  0  0
    3.0113   -1.7934    3.6554 C   0  0  0  0  0  0  0  0  0  0  0  0
    2.4482   -2.1470    1.6020 H   0  0  0  0  0  0  0  0  0  0  0  0
    1.0970   -2.2930    2.7931 H   0  0  0  0  0  0  0  0  0  0  0  0
    3.9335   -1.2305    3.3971 H   0  0  0  0  0  0  0  0  0  0  0  0
    3.2808   -2.8561    3.8309 H   0  0  0  0  0  0  0  0  0  0  0  0
    2.5793   -1.3770    4.5904 H   0  0  0  0  0  0  0  0  0  0  0  0
  1  2  1  0  0  0  0
  1 11  1  0  0  0  0
  2  3  2  0  0  0  0
  2  7  1  0  0  0  0
  3  4  1  0  0  0  0
  3  8  1  0  0  0  0
  4  6  2  0  0  0  0
  4 12  1  0  0  0  0
  5  6  1  0  0  0  0
  5  1  2  0  0  0  0
  5 10  1  0  0  0  0
  6  9  1  0  0  0  0
 11 16  1  0  0  0  0
 11 17  1  0  0  0  0
 11 18  1  0  0  0  0
 12 13  1  0  0  0  0
 12 14  1  0  0  0  0
 12 15  1  0  0  0  0
 16 19  1  0  0  0  0
 16 20  1  0  0  0  0
 16 21  1  0  0  0  0
 19 22  1  0  0  0  0
 19 23  1  0  0  0  0
 19 24  1  0  0  0  0
 22 25  1  0  0  0  0
 22 26  1  0  0  0  0
 22 27  1  0  0  0  0
M  END
