
 OpenBabel03251513123D

 30 30  0  0  0  0  0  0  0  0999 V2000
    0.4950   -0.5083   -0.0925 N   0  0  0  0  0  0  0  0  0  0  0  0
   -0.4450    0.0630   -1.1051 C   0  0  0  0  0  0  0  0  0  0  0  0
    1.4739    0.5951    0.1582 C   0  0  0  0  0  0  0  0  0  0  0  0
    1.2575    1.6207   -0.9440 C   0  0  0  0  0  0  0  0  0  0  0  0
    2.5362    0.2842    0.2271 H   0  0  0  0  0  0  0  0  0  0  0  0
    1.2329    1.1198    1.1140 H   0  0  0  0  0  0  0  0  0  0  0  0
   -0.2454    1.5691   -1.0652 C   0  0  0  0  0  0  0  0  0  0  0  0
   -1.5079   -0.2444   -0.9789 H   0  0  0  0  0  0  0  0  0  0  0  0
   -0.1526   -0.2504   -2.1369 H   0  0  0  0  0  0  0  0  0  0  0  0
   -0.7056    1.9847   -0.1398 H   0  0  0  0  0  0  0  0  0  0  0  0
   -0.6577    2.1036   -1.9473 H   0  0  0  0  0  0  0  0  0  0  0  0
    1.7120    1.2475   -1.8907 H   0  0  0  0  0  0  0  0  0  0  0  0
    1.6752    2.6247   -0.7172 H   0  0  0  0  0  0  0  0  0  0  0  0
   -0.2633   -0.8228    1.1452 C   0  0  0  0  0  0  0  0  0  0  0  0
   -0.8562    0.0555    1.4866 H   0  0  0  0  0  0  0  0  0  0  0  0
    0.4158   -1.0876    1.9829 H   0  0  0  0  0  0  0  0  0  0  0  0
   -0.9723   -1.6631    0.9740 H   0  0  0  0  0  0  0  0  0  0  0  0
    1.1466   -1.7301   -0.6605 C   0  0  0  0  0  0  0  0  0  0  0  0
    2.0875   -2.4902    0.3109 C   0  0  0  0  0  0  0  0  0  0  0  0
    1.7289   -1.4366   -1.5606 H   0  0  0  0  0  0  0  0  0  0  0  0
    0.3596   -2.4470   -0.9901 H   0  0  0  0  0  0  0  0  0  0  0  0
    2.7046   -3.7537   -0.3141 C   0  0  0  0  0  0  0  0  0  0  0  0
    1.5074   -2.8354    1.1906 H   0  0  0  0  0  0  0  0  0  0  0  0
    2.9086   -1.8384    0.6716 H   0  0  0  0  0  0  0  0  0  0  0  0
    3.6462   -3.4643   -1.4837 C   0  0  0  0  0  0  0  0  0  0  0  0
    3.1063   -3.0062   -2.3364 H   0  0  0  0  0  0  0  0  0  0  0  0
    4.0905   -4.4174   -1.8405 H   0  0  0  0  0  0  0  0  0  0  0  0
    4.4671   -2.7900   -1.1596 H   0  0  0  0  0  0  0  0  0  0  0  0
    1.8982   -4.4418   -0.6486 H   0  0  0  0  0  0  0  0  0  0  0  0
    3.2942   -4.2717    0.4735 H   0  0  0  0  0  0  0  0  0  0  0  0
  1  2  1  0  0  0  0
  1  3  1  0  0  0  0
  1 14  1  0  0  0  0
  1 18  1  0  0  0  0
  2  7  1  0  0  0  0
  2  8  1  0  0  0  0
  2  9  1  0  0  0  0
  3  4  1  0  0  0  0
  3  5  1  0  0  0  0
  3  6  1  0  0  0  0
  4 12  1  0  0  0  0
  4 13  1  0  0  0  0
  7  4  1  0  0  0  0
  7 10  1  0  0  0  0
  7 11  1  0  0  0  0
 14 15  1  0  0  0  0
 14 16  1  0  0  0  0
 14 17  1  0  0  0  0
 18 20  1  0  0  0  0
 18 21  1  0  0  0  0
 19 18  1  0  0  0  0
 19 23  1  0  0  0  0
 19 24  1  0  0  0  0
 22 19  1  0  0  0  0
 22 29  1  0  0  0  0
 22 30  1  0  0  0  0
 25 22  1  0  0  0  0
 25 26  1  0  0  0  0
 25 27  1  0  0  0  0
 25 28  1  0  0  0  0
M  END
