
 OpenBabel03251513153D

 24 24  0  0  0  0  0  0  0  0999 V2000
    0.0833    0.5588    0.6189 N   0  0  0  0  0  0  0  0  0  0  0  0
    0.6262    1.5757    1.3597 C   0  0  0  0  0  0  0  0  0  0  0  0
    0.2911    2.9073    1.1046 C   0  0  0  0  0  0  0  0  0  0  0  0
   -0.6062    3.2057    0.0846 C   0  0  0  0  0  0  0  0  0  0  0  0
   -0.8047    0.8505   -0.3909 C   0  0  0  0  0  0  0  0  0  0  0  0
   -1.1579    2.1739   -0.6679 C   0  0  0  0  0  0  0  0  0  0  0  0
    1.3268    1.3564    2.1575 H   0  0  0  0  0  0  0  0  0  0  0  0
    0.7266    3.7020    1.6966 H   0  0  0  0  0  0  0  0  0  0  0  0
   -0.8735    4.2340   -0.1223 H   0  0  0  0  0  0  0  0  0  0  0  0
   -1.8572    2.3956   -1.4639 H   0  0  0  0  0  0  0  0  0  0  0  0
   -1.2517    0.0749   -0.9944 H   0  0  0  0  0  0  0  0  0  0  0  0
    0.4949   -0.8218    0.9585 C   0  0  0  0  0  0  0  0  0  0  0  0
   -0.1384   -1.9338    0.1023 C   0  0  0  0  0  0  0  0  0  0  0  0
    0.2324   -1.0144    2.0227 H   0  0  0  0  0  0  0  0  0  0  0  0
    1.6005   -0.8940    0.8543 H   0  0  0  0  0  0  0  0  0  0  0  0
    0.3594   -3.3159    0.5427 C   0  0  0  0  0  0  0  0  0  0  0  0
    0.1356   -1.7789   -0.9645 H   0  0  0  0  0  0  0  0  0  0  0  0
   -1.2445   -1.9004    0.2141 H   0  0  0  0  0  0  0  0  0  0  0  0
   -0.2654   -4.4220   -0.3028 C   0  0  0  0  0  0  0  0  0  0  0  0
   -1.3714   -4.4094   -0.1991 H   0  0  0  0  0  0  0  0  0  0  0  0
    0.1122   -5.4092    0.0376 H   0  0  0  0  0  0  0  0  0  0  0  0
    0.0025   -4.2885   -1.3726 H   0  0  0  0  0  0  0  0  0  0  0  0
    0.0941   -3.4870    1.6089 H   0  0  0  0  0  0  0  0  0  0  0  0
    1.4652   -3.3663    0.4379 H   0  0  0  0  0  0  0  0  0  0  0  0
  1  2  1  0  0  0  0
  1 12  1  0  0  0  0
  2  3  2  0  0  0  0
  2  7  1  0  0  0  0
  3  4  1  0  0  0  0
  3  8  1  0  0  0  0
  4  6  2  0  0  0  0
  4  9  1  0  0  0  0
  5  6  1  0  0  0  0
  5  1  2  0  0  0  0
  5 11  1  0  0  0  0
  6 10  1  0  0  0  0
 12 14  1  0  0  0  0
 12 15  1  0  0  0  0
 13 12  1  0  0  0  0
 13 17  1  0  0  0  0
 13 18  1  0  0  0  0
 16 13  1  0  0  0  0
 16 23  1  0  0  0  0
 16 24  1  0  0  0  0
 19 16  1  0  0  0  0
 19 20  1  0  0  0  0
 19 21  1  0  0  0  0
 19 22  1  0  0  0  0
M  END
