
 OpenBabel05281914353D

 20 19  0  0  0  0  0  0  0  0999 V2000
    7.9585   -1.1353   -1.7898 N   0  3  0  0  0  0  0  0  0  0  0  0
    7.6218   -0.0084   -2.6934 C   0  0  0  0  0  0  0  0  0  0  0  0
    6.7107   -1.8824   -1.5004 C   0  0  0  0  0  0  0  0  0  0  0  0
    8.5078   -0.5797   -0.5300 C   0  0  0  0  0  0  0  0  0  0  0  0
    8.9730   -1.9926   -2.4763 C   0  0  0  0  0  0  0  0  0  0  0  0
    9.4920   -3.1548   -1.6565 C   0  0  0  0  0  0  0  0  0  0  0  0
   10.8004   -3.2059   -1.3272 O   0  0  0  0  0  0  0  0  0  0  0  0
    8.7468   -4.0640   -1.3244 O   0  0  0  0  0  0  0  0  0  0  0  0
    7.1964   -0.3780   -3.6537 H   0  0  0  0  0  0  0  0  0  0  0  0
    8.5228    0.6006   -2.9319 H   0  0  0  0  0  0  0  0  0  0  0  0
    6.8718    0.6721   -2.2304 H   0  0  0  0  0  0  0  0  0  0  0  0
    6.3000   -2.3479   -2.4241 H   0  0  0  0  0  0  0  0  0  0  0  0
    5.9301   -1.2083   -1.0810 H   0  0  0  0  0  0  0  0  0  0  0  0
    6.8692   -2.6774   -0.7435 H   0  0  0  0  0  0  0  0  0  0  0  0
    9.4405   -0.0030   -0.7208 H   0  0  0  0  0  0  0  0  0  0  0  0
    8.7461   -1.3859    0.1979 H   0  0  0  0  0  0  0  0  0  0  0  0
    7.7768    0.1026   -0.0405 H   0  0  0  0  0  0  0  0  0  0  0  0
    8.5598   -2.3992   -3.4271 H   0  0  0  0  0  0  0  0  0  0  0  0
    9.8544   -1.3674   -2.7492 H   0  0  0  0  0  0  0  0  0  0  0  0
   11.1595   -3.9448   -0.8158 H   0  0  0  0  0  0  0  0  0  0  0  0
  1  2  1  0  0  0  0
  1  5  1  0  0  0  0
  1  3  1  0  0  0  0
  1  4  1  0  0  0  0
  2  9  1  0  0  0  0
  2 10  1  0  0  0  0
  2 11  1  0  0  0  0
  3 12  1  0  0  0  0
  3 13  1  0  0  0  0
  3 14  1  0  0  0  0
  4 15  1  0  0  0  0
  4 16  1  0  0  0  0
  4 17  1  0  0  0  0
  5  6  1  0  0  0  0
  5 18  1  0  0  0  0
  5 19  1  0  0  0  0
  6  7  1  0  0  0  0
  6  8  2  0  0  0  0
  7 20  1  0  0  0  0
M  CHG  1   1   1
M  END
