
 OpenBabel06121909433D

 21 20  0  0  0  0  0  0  0  0999 V2000
   -7.2718    0.0958    1.4235 C   0  0  0  0  0  0  0  0  0  0  0  0
   -5.9045    0.2582    0.8740 N   0  3  0  0  0  0  0  0  0  0  0  0
   -7.7070    1.0675    1.7381 H   0  0  0  0  0  0  0  0  0  0  0  0
   -7.2643   -0.5532    2.3282 H   0  0  0  0  0  0  0  0  0  0  0  0
   -7.9513   -0.3690    0.6746 H   0  0  0  0  0  0  0  0  0  0  0  0
   -5.0394    0.9107    1.8858 C   0  0  0  0  0  0  0  0  0  0  0  0
   -5.9185    1.0252   -0.4104 C   0  0  0  0  0  0  0  0  0  0  0  0
   -4.9604    0.2879    2.8053 H   0  0  0  0  0  0  0  0  0  0  0  0
   -5.4486    1.8919    2.2058 H   0  0  0  0  0  0  0  0  0  0  0  0
   -4.0112    1.0694    1.4907 H   0  0  0  0  0  0  0  0  0  0  0  0
   -4.8840    1.0860   -0.8210 H   0  0  0  0  0  0  0  0  0  0  0  0
   -6.4620    2.4654   -0.3243 C   0  0  0  0  0  0  0  0  0  0  0  0
   -6.5362    0.4829   -1.1632 H   0  0  0  0  0  0  0  0  0  0  0  0
   -5.3540   -1.0904    0.5931 C   0  0  0  0  0  0  0  0  0  0  0  0
   -5.3173   -1.7139    1.5150 H   0  0  0  0  0  0  0  0  0  0  0  0
   -4.3181   -1.0261    0.1900 H   0  0  0  0  0  0  0  0  0  0  0  0
   -5.9775   -1.6319   -0.1537 H   0  0  0  0  0  0  0  0  0  0  0  0
   -5.8381    3.0700    0.3669 H   0  0  0  0  0  0  0  0  0  0  0  0
   -7.5178    2.4568    0.0191 H   0  0  0  0  0  0  0  0  0  0  0  0
   -6.4100    3.0455   -1.5982 O   0  0  0  0  0  0  0  0  0  0  0  0
   -6.7667    3.9665   -1.4989 H   0  0  0  0  0  0  0  0  0  0  0  0
  1  2  1  0  0  0  0
  1  3  1  0  0  0  0
  1  4  1  0  0  0  0
  1  5  1  0  0  0  0
  2  6  1  0  0  0  0
  2  7  1  0  0  0  0
  2 14  1  0  0  0  0
  6  8  1  0  0  0  0
  6  9  1  0  0  0  0
  6 10  1  0  0  0  0
  7 11  1  0  0  0  0
  7 12  1  0  0  0  0
  7 13  1  0  0  0  0
 12 18  1  0  0  0  0
 12 19  1  0  0  0  0
 12 20  1  0  0  0  0
 14 15  1  0  0  0  0
 14 16  1  0  0  0  0
 14 17  1  0  0  0  0
 20 21  1  0  0  0  0
M  CHG  1   2   1
M  END
