
 OpenBabel03131815383D

 19 18  0  0  0  0  0  0  0  0999 V2000
   -5.5815    1.7502   -0.0333 C   0  0  0  0  0  0  0  0  0  0  0  0
   -4.3655    2.3003   -0.0708 C   0  0  0  0  0  0  0  0  0  0  0  0
   -3.1299    1.4393   -0.0765 C   0  0  0  0  0  0  0  0  0  0  0  0
   -0.7119    1.4224   -0.1257 C   0  0  0  0  0  0  0  0  0  0  0  0
    0.5348    2.2660   -0.1704 C   0  0  0  0  0  0  0  0  0  0  0  0
    1.7435    1.6989   -0.1821 C   0  0  0  0  0  0  0  0  0  0  0  0
   -1.9155    2.2670   -0.1203 N   0  0  0  0  0  0  0  0  0  0  0  0
   -0.6844    0.7957    0.7944 H   0  0  0  0  0  0  0  0  0  0  0  0
   -0.7214    0.7544   -1.0166 H   0  0  0  0  0  0  0  0  0  0  0  0
   -3.1660    0.7715   -0.9669 H   0  0  0  0  0  0  0  0  0  0  0  0
   -3.1288    0.8128    0.8441 H   0  0  0  0  0  0  0  0  0  0  0  0
   -6.4635    2.3824   -0.0296 H   0  0  0  0  0  0  0  0  0  0  0  0
   -5.7021    0.6712   -0.0062 H   0  0  0  0  0  0  0  0  0  0  0  0
   -4.2738    3.3827   -0.0974 H   0  0  0  0  0  0  0  0  0  0  0  0
    2.6337    2.3187   -0.2145 H   0  0  0  0  0  0  0  0  0  0  0  0
    1.8500    0.6184   -0.1597 H   0  0  0  0  0  0  0  0  0  0  0  0
    0.4572    3.3496   -0.1935 H   0  0  0  0  0  0  0  0  0  0  0  0
   -1.8940    2.8912    0.7213 H   0  0  0  0  0  0  0  0  0  0  0  0
   -1.9290    2.8521   -0.9897 H   0  0  0  0  0  0  0  0  0  0  0  0
  1  2  2  0  0  0  0
  1 12  1  0  0  0  0
  1 13  1  0  0  0  0
  2 14  1  0  0  0  0
  3  2  1  0  0  0  0
  3 10  1  0  0  0  0
  3 11  1  0  0  0  0
  4  8  1  0  0  0  0
  4  9  1  0  0  0  0
  5  4  1  0  0  0  0
  5 17  1  0  0  0  0
  6  5  2  0  0  0  0
  6 15  1  0  0  0  0
  6 16  1  0  0  0  0
  7  4  1  0  0  0  0
  7  3  1  0  0  0  0
 18  7  1  0  0  0  0
 19  7  1  0  0  0  0
M  END
