
 OpenBabel08281909513D

  5  4  0  0  0  0  0  0  0  0999 V2000
   -3.8487    2.4759    0.2556 N   0  5  0  0  0  0  0  0  0  0  0  0
   -5.0911    1.8851    0.0889 C   0  0  0  0  0  0  0  0  0  0  0  0
   -2.6952    1.7266    0.0864 C   0  0  0  0  0  0  0  0  0  0  0  0
   -6.1289    1.3922   -0.0502 N   0  0  0  0  0  0  0  0  0  0  0  0
   -1.7317    1.1013   -0.0549 N   0  0  0  0  0  0  0  0  0  0  0  0
  1  2  1  0  0  0  0
  1  3  1  0  0  0  0
  2  4  3  0  0  0  0
  3  5  3  0  0  0  0
M  CHG  1   1  -1
M  END
