
 OpenBabel08071916073D

 20 20  0  0  0  0  0  0  0  0999 V2000
   -0.7352   -0.5669    0.9379 C   0  0  0  0  0  0  0  0  0  0  0  0
    0.5265   -0.6473    0.0803 C   0  0  0  0  0  0  0  0  0  0  0  0
    1.2441    0.6271    0.0906 N   0  0  0  0  0  0  0  0  0  0  0  0
    0.2344   -0.9071   -0.9613 H   0  0  0  0  0  0  0  0  0  0  0  0
    1.1948   -1.4474    0.4661 H   0  0  0  0  0  0  0  0  0  0  0  0
    1.5030    1.4141   -0.9728 C   0  0  0  0  0  0  0  0  0  0  0  0
    2.3725    2.4180    0.7280 C   0  0  0  0  0  0  0  0  0  0  0  0
    1.7862    1.2461    1.1600 C   0  0  0  0  0  0  0  0  0  0  0  0
    2.6497    3.5936   -1.4660 C   0  0  0  0  0  0  0  0  0  0  0  0
    1.7583    0.8730    2.1755 H   0  0  0  0  0  0  0  0  0  0  0  0
    2.1900    2.5128   -0.6033 N   0  3  0  0  0  0  0  0  0  0  0  0
    1.1992    1.1931   -1.9887 H   0  0  0  0  0  0  0  0  0  0  0  0
    2.8935    3.1456    1.3369 H   0  0  0  0  0  0  0  0  0  0  0  0
    2.3555    3.4036   -2.5204 H   0  0  0  0  0  0  0  0  0  0  0  0
    3.7559    3.6707   -1.4106 H   0  0  0  0  0  0  0  0  0  0  0  0
    2.1988    4.5527   -1.1351 H   0  0  0  0  0  0  0  0  0  0  0  0
   -1.3943    0.2331    0.5321 H   0  0  0  0  0  0  0  0  0  0  0  0
   -1.4028   -1.7967    0.8959 O   0  0  0  0  0  0  0  0  0  0  0  0
   -0.4536   -0.3314    1.9882 H   0  0  0  0  0  0  0  0  0  0  0  0
   -2.2164   -1.6870    1.4536 H   0  0  0  0  0  0  0  0  0  0  0  0
  1  2  1  0  0  0  0
  1 19  1  0  0  0  0
  1 18  1  0  0  0  0
  2  3  1  0  0  0  0
  2  5  1  0  0  0  0
  3  8  1  0  0  0  0
  4  2  1  0  0  0  0
  6  3  1  0  0  0  0
  6 11  2  0  0  0  0
  7  8  2  0  0  0  0
  7 13  1  0  0  0  0
  8 10  1  0  0  0  0
  9 15  1  0  0  0  0
  9 11  1  0  0  0  0
 11  7  1  0  0  0  0
 12  6  1  0  0  0  0
 14  9  1  0  0  0  0
 16  9  1  0  0  0  0
 17  1  1  0  0  0  0
 18 20  1  0  0  0  0
M  CHG  1  11   1
M  END
