
 OpenBabel08271917433D

 33 34  0  0  0  0  0  0  0  0999 V2000
   -6.5336    1.8107    1.5314 C   0  0  0  0  0  0  0  0  0  0  0  0
   -5.4625    1.7863    2.4297 C   0  0  0  0  0  0  0  0  0  0  0  0
   -5.1671    2.9140    3.2020 C   0  0  0  0  0  0  0  0  0  0  0  0
   -7.3152    2.9628    1.4005 C   0  0  0  0  0  0  0  0  0  0  0  0
   -7.0255    4.0992    2.1720 C   0  0  0  0  0  0  0  0  0  0  0  0
   -5.9467    4.0745    3.0765 C   0  0  0  0  0  0  0  0  0  0  0  0
   -6.7584    0.9353    0.9358 H   0  0  0  0  0  0  0  0  0  0  0  0
   -8.1423    2.9681    0.7006 H   0  0  0  0  0  0  0  0  0  0  0  0
   -4.8604    0.8922    2.5275 H   0  0  0  0  0  0  0  0  0  0  0  0
   -4.3342    2.8819    3.8943 H   0  0  0  0  0  0  0  0  0  0  0  0
   -7.7960    5.2638    2.0562 C   0  0  0  0  0  0  0  0  0  0  0  0
   -7.5137    6.3732    2.8088 N   0  3  0  0  0  0  0  0  0  0  0  0
   -6.4605    6.3521    3.6933 C   0  0  0  0  0  0  0  0  0  0  0  0
   -5.6688    5.2104    3.8377 C   0  0  0  0  0  0  0  0  0  0  0  0
   -8.6276    5.2833    1.3590 H   0  0  0  0  0  0  0  0  0  0  0  0
   -6.2138    7.2104    4.2997 H   0  0  0  0  0  0  0  0  0  0  0  0
   -8.3822    7.5571    2.6186 C   0  0  0  0  0  0  0  0  0  0  0  0
   -8.0342    8.7841    3.4813 C   0  0  0  0  0  0  0  0  0  0  0  0
   -9.4311    7.2627    2.8460 H   0  0  0  0  0  0  0  0  0  0  0  0
   -8.3303    7.8619    1.5496 H   0  0  0  0  0  0  0  0  0  0  0  0
   -8.9974    9.9443    3.1996 C   0  0  0  0  0  0  0  0  0  0  0  0
   -6.9983    9.1160    3.2492 H   0  0  0  0  0  0  0  0  0  0  0  0
   -8.1088    8.5116    4.5571 H   0  0  0  0  0  0  0  0  0  0  0  0
   -8.6519   11.1668    4.0578 C   0  0  0  0  0  0  0  0  0  0  0  0
  -10.0378    9.6210    3.4245 H   0  0  0  0  0  0  0  0  0  0  0  0
   -8.9337   10.2219    2.1241 H   0  0  0  0  0  0  0  0  0  0  0  0
   -9.6082   12.3229    3.7800 C   0  0  0  0  0  0  0  0  0  0  0  0
   -7.6142   11.4985    3.8354 H   0  0  0  0  0  0  0  0  0  0  0  0
   -8.7175   10.8981    5.1348 H   0  0  0  0  0  0  0  0  0  0  0  0
   -9.5468   12.6270    2.7133 H   0  0  0  0  0  0  0  0  0  0  0  0
   -9.3350   13.1927    4.4139 H   0  0  0  0  0  0  0  0  0  0  0  0
  -10.6524   12.0254    4.0153 H   0  0  0  0  0  0  0  0  0  0  0  0
   -4.8442    5.2164    4.5407 H   0  0  0  0  0  0  0  0  0  0  0  0
  1  2  1  0  0  0  0
  1  4  2  0  0  0  0
  1  7  1  0  0  0  0
  2  3  2  0  0  0  0
  2  9  1  0  0  0  0
  3  6  1  0  0  0  0
  3 10  1  0  0  0  0
  4  5  1  0  0  0  0
  4  8  1  0  0  0  0
  5  6  2  0  0  0  0
  5 11  1  0  0  0  0
 11 12  2  0  0  0  0
 11 15  1  0  0  0  0
 12 13  1  0  0  0  0
 12 17  1  0  0  0  0
 13 14  2  0  0  0  0
 13 16  1  0  0  0  0
 14  6  1  0  0  0  0
 14 33  1  0  0  0  0
 17 18  1  0  0  0  0
 17 19  1  0  0  0  0
 17 20  1  0  0  0  0
 18 21  1  0  0  0  0
 18 22  1  0  0  0  0
 18 23  1  0  0  0  0
 21 24  1  0  0  0  0
 21 25  1  0  0  0  0
 21 26  1  0  0  0  0
 24 27  1  0  0  0  0
 24 28  1  0  0  0  0
 24 29  1  0  0  0  0
 27 30  1  0  0  0  0
 27 31  1  0  0  0  0
 27 32  1  0  0  0  0
M  CHG  1  12   1
M  END
