
 OpenBabel03251513133D

 36 36  0  0  0  0  0  0  0  0999 V2000
    0.3314   -0.1389   -0.3817 N   0  3  0  0  0  0  0  0  0  0  0  0
   -0.5346    1.1143   -0.2833 C   0  0  0  0  0  0  0  0  0  0  0  0
    1.3831    0.1193    0.7124 C   0  0  0  0  0  0  0  0  0  0  0  0
    1.6217    1.6227    0.6914 C   0  0  0  0  0  0  0  0  0  0  0  0
    2.2776   -0.4774    0.5079 H   0  0  0  0  0  0  0  0  0  0  0  0
    0.9501   -0.1830    1.6729 H   0  0  0  0  0  0  0  0  0  0  0  0
    0.4570    2.2401   -0.0690 C   0  0  0  0  0  0  0  0  0  0  0  0
   -1.1794    1.0007    0.5965 H   0  0  0  0  0  0  0  0  0  0  0  0
   -1.1592    1.2195   -1.1721 H   0  0  0  0  0  0  0  0  0  0  0  0
    0.0075    3.0761    0.4758 H   0  0  0  0  0  0  0  0  0  0  0  0
    0.8067    2.6333   -1.0302 H   0  0  0  0  0  0  0  0  0  0  0  0
    2.5688    1.8607    0.1944 H   0  0  0  0  0  0  0  0  0  0  0  0
    1.6890    2.0154    1.7116 H   0  0  0  0  0  0  0  0  0  0  0  0
   -0.4696   -1.3883   -0.0377 C   0  0  0  0  0  0  0  0  0  0  0  0
   -0.8786   -1.2783    0.9713 H   0  0  0  0  0  0  0  0  0  0  0  0
    0.2020   -2.2503   -0.0800 H   0  0  0  0  0  0  0  0  0  0  0  0
   -1.2885   -1.4951   -0.7517 H   0  0  0  0  0  0  0  0  0  0  0  0
    1.0478   -0.3108   -1.7400 C   0  0  0  0  0  0  0  0  0  0  0  0
    0.1027   -0.3750   -2.9447 C   0  0  0  0  0  0  0  0  0  0  0  0
    1.6084   -1.2502   -1.6609 H   0  0  0  0  0  0  0  0  0  0  0  0
    1.7760    0.5013   -1.8426 H   0  0  0  0  0  0  0  0  0  0  0  0
    0.1165    0.9182   -3.7694 C   0  0  0  0  0  0  0  0  0  0  0  0
   -0.9241   -0.6216   -2.6611 H   0  0  0  0  0  0  0  0  0  0  0  0
    0.4444   -1.1888   -3.5974 H   0  0  0  0  0  0  0  0  0  0  0  0
   -0.8526    0.8297   -4.9510 C   0  0  0  0  0  0  0  0  0  0  0  0
    1.1315    1.1025   -4.1418 H   0  0  0  0  0  0  0  0  0  0  0  0
   -0.1517    1.7664   -3.1337 H   0  0  0  0  0  0  0  0  0  0  0  0
   -0.8225    2.0638   -5.8551 C   0  0  0  0  0  0  0  0  0  0  0  0
   -1.8731    0.6728   -4.5808 H   0  0  0  0  0  0  0  0  0  0  0  0
   -0.5986   -0.0476   -5.5587 H   0  0  0  0  0  0  0  0  0  0  0  0
   -1.2993    3.3334   -5.1660 C   0  0  0  0  0  0  0  0  0  0  0  0
   -1.4684    1.8744   -6.7208 H   0  0  0  0  0  0  0  0  0  0  0  0
    0.1908    2.2181   -6.2435 H   0  0  0  0  0  0  0  0  0  0  0  0
   -2.2901    3.1926   -4.7227 H   0  0  0  0  0  0  0  0  0  0  0  0
   -1.3652    4.1516   -5.8903 H   0  0  0  0  0  0  0  0  0  0  0  0
   -0.6079    3.6456   -4.3778 H   0  0  0  0  0  0  0  0  0  0  0  0
  1  2  1  0  0  0  0
  1  3  1  0  0  0  0
  1 14  1  0  0  0  0
  1 18  1  0  0  0  0
  2  7  1  0  0  0  0
  2  8  1  0  0  0  0
  2  9  1  0  0  0  0
  3  4  1  0  0  0  0
  3  5  1  0  0  0  0
  3  6  1  0  0  0  0
  4 12  1  0  0  0  0
  4 13  1  0  0  0  0
  7  4  1  0  0  0  0
  7 10  1  0  0  0  0
  7 11  1  0  0  0  0
 14 15  1  0  0  0  0
 14 16  1  0  0  0  0
 14 17  1  0  0  0  0
 18 19  1  0  0  0  0
 18 20  1  0  0  0  0
 18 21  1  0  0  0  0
 19 22  1  0  0  0  0
 19 23  1  0  0  0  0
 19 24  1  0  0  0  0
 22 25  1  0  0  0  0
 22 26  1  0  0  0  0
 22 27  1  0  0  0  0
 25 28  1  0  0  0  0
 25 29  1  0  0  0  0
 25 30  1  0  0  0  0
 28 31  1  0  0  0  0
 28 32  1  0  0  0  0
 28 33  1  0  0  0  0
 31 34  1  0  0  0  0
 31 35  1  0  0  0  0
 31 36  1  0  0  0  0
M  CHG  1   1   1
M  END
