
 OpenBabel01121810143D

 21 21  0  0  0  0  0  0  0  0999 V2000
    0.4188   -0.5485   -0.0910 N   0  0  0  0  0  0  0  0  0  0  0  0
   -0.3899    0.0966   -1.1650 C   0  0  0  0  0  0  0  0  0  0  0  0
    1.4413    0.4707    0.2823 C   0  0  0  0  0  0  0  0  0  0  0  0
    1.4299    1.5014   -0.8361 C   0  0  0  0  0  0  0  0  0  0  0  0
    2.4545    0.0591    0.4901 H   0  0  0  0  0  0  0  0  0  0  0  0
    1.1269    1.0187    1.2032 H   0  0  0  0  0  0  0  0  0  0  0  0
   -0.0556    1.5791   -1.1048 C   0  0  0  0  0  0  0  0  0  0  0  0
   -1.4826   -0.1099   -1.1126 H   0  0  0  0  0  0  0  0  0  0  0  0
   -0.0498   -0.2506   -2.1705 H   0  0  0  0  0  0  0  0  0  0  0  0
   -0.5627    2.0388   -0.2257 H   0  0  0  0  0  0  0  0  0  0  0  0
   -0.3356    2.1438   -2.0195 H   0  0  0  0  0  0  0  0  0  0  0  0
    1.9422    1.0826   -1.7325 H   0  0  0  0  0  0  0  0  0  0  0  0
    1.9065    2.4677   -0.5661 H   0  0  0  0  0  0  0  0  0  0  0  0
   -0.4310   -0.8866    1.0738 C   0  0  0  0  0  0  0  0  0  0  0  0
   -0.9626    0.0131    1.4572 H   0  0  0  0  0  0  0  0  0  0  0  0
    0.1825   -1.3060    1.9022 H   0  0  0  0  0  0  0  0  0  0  0  0
   -1.2024   -1.6395    0.7966 H   0  0  0  0  0  0  0  0  0  0  0  0
    1.0669   -1.7814   -0.5945 C   0  0  0  0  0  0  0  0  0  0  0  0
    1.7426   -1.5585   -1.4505 H   0  0  0  0  0  0  0  0  0  0  0  0
    0.3049   -2.5169   -0.9366 H   0  0  0  0  0  0  0  0  0  0  0  0
    1.6800   -2.2603    0.2014 H   0  0  0  0  0  0  0  0  0  0  0  0
  1  2  1  0  0  0  0
  1  3  1  0  0  0  0
  1 14  1  0  0  0  0
  1 18  1  0  0  0  0
  2  7  1  0  0  0  0
  2  8  1  0  0  0  0
  2  9  1  0  0  0  0
  3  4  1  0  0  0  0
  3  5  1  0  0  0  0
  3  6  1  0  0  0  0
  4 12  1  0  0  0  0
  4 13  1  0  0  0  0
  7  4  1  0  0  0  0
  7 10  1  0  0  0  0
  7 11  1  0  0  0  0
 14 15  1  0  0  0  0
 14 16  1  0  0  0  0
 14 17  1  0  0  0  0
 18 19  1  0  0  0  0
 18 20  1  0  0  0  0
 21 18  1  0  0  0  0
M  END
