
 OpenBabel03251513163D

 15 15  0  0  0  0  0  0  0  0999 V2000
    0.1294    1.1604    0.5666 N   0  0  0  0  0  0  0  0  0  0  0  0
    0.6084    2.2847    1.1870 C   0  0  0  0  0  0  0  0  0  0  0  0
    0.0721    3.5816    0.9016 C   0  0  0  0  0  0  0  0  0  0  0  0
   -0.9145    3.7433   -0.0410 C   0  0  0  0  0  0  0  0  0  0  0  0
   -0.7878    1.3361   -0.4369 C   0  0  0  0  0  0  0  0  0  0  0  0
   -1.3326    2.6294   -0.7328 C   0  0  0  0  0  0  0  0  0  0  0  0
    1.3893    2.1905    1.9234 H   0  0  0  0  0  0  0  0  0  0  0  0
    0.4198    4.4581    1.4528 H   0  0  0  0  0  0  0  0  0  0  0  0
   -1.3571    4.7414   -0.2410 H   0  0  0  0  0  0  0  0  0  0  0  0
   -2.1096    2.7472   -1.4907 H   0  0  0  0  0  0  0  0  0  0  0  0
   -1.1277    0.4840   -1.0050 H   0  0  0  0  0  0  0  0  0  0  0  0
    0.5076   -0.2834    1.0993 C   0  0  0  0  0  0  0  0  0  0  0  0
    1.3188   -0.2553    1.8457 H   0  0  0  0  0  0  0  0  0  0  0  0
    0.8164   -0.9830    0.3059 H   0  0  0  0  0  0  0  0  0  0  0  0
   -0.3648   -0.7290    1.6043 H   0  0  0  0  0  0  0  0  0  0  0  0
  1  2  1  0  0  0  0
  1 12  1  0  0  0  0
  2  3  2  0  0  0  0
  2  7  1  0  0  0  0
  3  4  1  0  0  0  0
  3  8  1  0  0  0  0
  4  6  2  0  0  0  0
  4  9  1  0  0  0  0
  5  6  1  0  0  0  0
  5  1  2  0  0  0  0
  5 11  1  0  0  0  0
  6 10  1  0  0  0  0
 12 13  1  0  0  0  0
 12 14  1  0  0  0  0
 12 15  1  0  0  0  0
M  END
