
 OpenBabel03251513143D

 42 42  0  0  0  0  0  0  0  0999 V2000
    0.0653   -0.1618   -0.2956 N   0  0  0  0  0  0  0  0  0  0  0  0
   -0.5693    1.0183   -0.9584 C   0  0  0  0  0  0  0  0  0  0  0  0
    1.1727    0.4300    0.5182 C   0  0  0  0  0  0  0  0  0  0  0  0
    1.3366    1.8653    0.0419 C   0  0  0  0  0  0  0  0  0  0  0  0
    2.1335   -0.1231    0.4913 H   0  0  0  0  0  0  0  0  0  0  0  0
    0.8737    0.4974    1.5918 H   0  0  0  0  0  0  0  0  0  0  0  0
   -0.1080    2.2393   -0.1799 C   0  0  0  0  0  0  0  0  0  0  0  0
   -1.6762    0.9540   -1.0621 H   0  0  0  0  0  0  0  0  0  0  0  0
   -0.1682    1.1530   -1.9925 H   0  0  0  0  0  0  0  0  0  0  0  0
   -0.6343    2.2805    0.8009 H   0  0  0  0  0  0  0  0  0  0  0  0
   -0.2608    3.2009   -0.7146 H   0  0  0  0  0  0  0  0  0  0  0  0
    1.8684    1.8714   -0.9375 H   0  0  0  0  0  0  0  0  0  0  0  0
    1.8862    2.5187    0.7525 H   0  0  0  0  0  0  0  0  0  0  0  0
   -0.9350   -0.8176    0.5845 C   0  0  0  0  0  0  0  0  0  0  0  0
   -1.4046   -0.0823    1.2760 H   0  0  0  0  0  0  0  0  0  0  0  0
   -0.4664   -1.5962    1.2231 H   0  0  0  0  0  0  0  0  0  0  0  0
   -1.7474   -1.2838   -0.0161 H   0  0  0  0  0  0  0  0  0  0  0  0
    0.5696   -1.1025   -1.3444 C   0  0  0  0  0  0  0  0  0  0  0  0
    1.1660   -2.4285   -0.8123 C   0  0  0  0  0  0  0  0  0  0  0  0
    1.3535   -0.5907   -1.9494 H   0  0  0  0  0  0  0  0  0  0  0  0
   -0.2641   -1.3654   -2.0361 H   0  0  0  0  0  0  0  0  0  0  0  0
    1.6928   -3.2869   -1.9744 C   0  0  0  0  0  0  0  0  0  0  0  0
    0.3806   -2.9959   -0.2778 H   0  0  0  0  0  0  0  0  0  0  0  0
    2.0061   -2.2297   -0.1172 H   0  0  0  0  0  0  0  0  0  0  0  0
    2.3587   -4.5966   -1.5184 C   0  0  0  0  0  0  0  0  0  0  0  0
    0.8646   -3.5198   -2.6793 H   0  0  0  0  0  0  0  0  0  0  0  0
    2.4596   -2.6982   -2.5244 H   0  0  0  0  0  0  0  0  0  0  0  0
    1.3887   -5.5697   -0.8296 C   0  0  0  0  0  0  0  0  0  0  0  0
    3.2068   -4.3631   -0.8378 H   0  0  0  0  0  0  0  0  0  0  0  0
    2.7694   -5.0941   -2.4244 H   0  0  0  0  0  0  0  0  0  0  0  0
    2.0998   -6.8836   -0.4694 C   0  0  0  0  0  0  0  0  0  0  0  0
    0.5437   -5.7899   -1.5182 H   0  0  0  0  0  0  0  0  0  0  0  0
    0.9947   -5.1038    0.0942 H   0  0  0  0  0  0  0  0  0  0  0  0
    1.1651   -7.9284    0.1622 C   0  0  0  0  0  0  0  0  0  0  0  0
    2.9460   -6.6784    0.2227 H   0  0  0  0  0  0  0  0  0  0  0  0
    2.5145   -7.3262   -1.4016 H   0  0  0  0  0  0  0  0  0  0  0  0
    0.5960   -7.4989    1.5148 C   0  0  0  0  0  0  0  0  0  0  0  0
   -0.0503   -6.6036    1.4150 H   0  0  0  0  0  0  0  0  0  0  0  0
    1.4197   -7.2830    2.2279 H   0  0  0  0  0  0  0  0  0  0  0  0
   -0.0253   -8.3206    1.9292 H   0  0  0  0  0  0  0  0  0  0  0  0
    1.7496   -8.8609    0.3195 H   0  0  0  0  0  0  0  0  0  0  0  0
    0.3307   -8.1576   -0.5355 H   0  0  0  0  0  0  0  0  0  0  0  0
  1  2  1  0  0  0  0
  1  3  1  0  0  0  0
  1 14  1  0  0  0  0
  1 18  1  0  0  0  0
  2  7  1  0  0  0  0
  2  8  1  0  0  0  0
  2  9  1  0  0  0  0
  3  4  1  0  0  0  0
  3  5  1  0  0  0  0
  3  6  1  0  0  0  0
  4 12  1  0  0  0  0
  4 13  1  0  0  0  0
  7  4  1  0  0  0  0
  7 10  1  0  0  0  0
  7 11  1  0  0  0  0
 14 15  1  0  0  0  0
 14 16  1  0  0  0  0
 14 17  1  0  0  0  0
 18 20  1  0  0  0  0
 18 21  1  0  0  0  0
 19 18  1  0  0  0  0
 19 23  1  0  0  0  0
 19 24  1  0  0  0  0
 22 19  1  0  0  0  0
 22 26  1  0  0  0  0
 22 27  1  0  0  0  0
 25 22  1  0  0  0  0
 25 29  1  0  0  0  0
 25 30  1  0  0  0  0
 28 25  1  0  0  0  0
 28 32  1  0  0  0  0
 28 33  1  0  0  0  0
 31 28  1  0  0  0  0
 31 35  1  0  0  0  0
 31 36  1  0  0  0  0
 34 31  1  0  0  0  0
 34 41  1  0  0  0  0
 34 42  1  0  0  0  0
 37 34  1  0  0  0  0
 37 38  1  0  0  0  0
 37 39  1  0  0  0  0
 37 40  1  0  0  0  0
M  END
