
 OpenBabel03021816243D

  7  6  0  0  0  0  0  0  0  0999 V2000
    1.8082   -1.4429    0.1617 P   0  0  0  0  0  0  0  0  0  0  0  0
    3.3607   -1.4581    0.8973 F   0  0  0  0  0  0  0  0  0  0  0  0
    1.1773   -0.5878    1.5115 F   0  0  0  0  0  0  0  0  0  0  0  0
    1.4297   -2.9327    0.9287 F   0  0  0  0  0  0  0  0  0  0  0  0
    2.4395   -2.2983   -1.1878 F   0  0  0  0  0  0  0  0  0  0  0  0
    2.1865    0.0470   -0.6055 F   0  0  0  0  0  0  0  0  0  0  0  0
    0.2560   -1.4272   -0.5741 F   0  0  0  0  0  0  0  0  0  0  0  0
  1  2  1  0  0  0  0
  1  3  1  0  0  0  0
  1  4  1  0  0  0  0
  1  5  1  0  0  0  0
  1  6  1  0  0  0  0
  1  7  1  0  0  0  0
M  END
