
 OpenBabel01121810113D

 12 12  0  0  0  0  0  0  0  0999 V2000
    0.2371    0.6955    0.8086 N   0  0  0  0  0  0  0  0  0  0  0  0
    0.6175    1.8467    1.4299 C   0  0  0  0  0  0  0  0  0  0  0  0
    0.1327    3.0790    0.9832 C   0  0  0  0  0  0  0  0  0  0  0  0
   -0.7427    3.1170   -0.1029 C   0  0  0  0  0  0  0  0  0  0  0  0
   -0.6166    0.7139   -0.2530 C   0  0  0  0  0  0  0  0  0  0  0  0
   -1.1215    1.9277   -0.7271 C   0  0  0  0  0  0  0  0  0  0  0  0
    1.2971    1.8083    2.2718 H   0  0  0  0  0  0  0  0  0  0  0  0
    0.4333    3.9951    1.4749 H   0  0  0  0  0  0  0  0  0  0  0  0
   -1.1260    4.0643   -0.4595 H   0  0  0  0  0  0  0  0  0  0  0  0
   -1.7999    1.9453   -1.5702 H   0  0  0  0  0  0  0  0  0  0  0  0
   -0.9054   -0.2134   -0.7314 H   0  0  0  0  0  0  0  0  0  0  0  0
    0.6070   -0.2186    1.1527 H   0  0  0  0  0  0  0  0  0  0  0  0
  1  2  1  0  0  0  0
  2  3  2  0  0  0  0
  2  7  1  0  0  0  0
  3  4  1  0  0  0  0
  3  8  1  0  0  0  0
  4  6  2  0  0  0  0
  4  9  1  0  0  0  0
  5  6  1  0  0  0  0
  5  1  2  0  0  0  0
  5 11  1  0  0  0  0
  6 10  1  0  0  0  0
 12  1  1  0  0  0  0
M  END
