
 OpenBabel08281909243D

 13 13  0  0  0  0  0  0  0  0999 V2000
   -1.8620   -0.7615   -1.2800 F   0  0  0  0  0  0  0  0  0  0  0  0
   -1.7278   -1.5197   -0.1312 C   0  0  0  0  0  0  0  0  0  0  0  0
   -0.5524   -1.1712    0.5088 F   0  0  0  0  0  0  0  0  0  0  0  0
   -2.7886   -1.2465    0.7128 F   0  0  0  0  0  0  0  0  0  0  0  0
   -1.7292   -2.9856   -0.4529 C   0  0  0  0  0  0  0  0  0  0  0  0
   -2.8602   -3.6829   -0.7074 N   0  0  0  0  0  0  0  0  0  0  0  0
   -0.6311   -3.7772   -0.3917 N   0  5  0  0  0  0  0  0  0  0  0  0
   -2.4552   -4.9602   -0.8057 C   0  0  0  0  0  0  0  0  0  0  0  0
   -1.0961   -5.0168   -0.6310 C   0  0  0  0  0  0  0  0  0  0  0  0
   -3.3372   -6.0787   -1.0094 C   0  0  0  0  0  0  0  0  0  0  0  0
   -0.2839   -6.2059   -0.6691 C   0  0  0  0  0  0  0  0  0  0  0  0
   -4.0386   -6.9845   -1.1729 N   0  0  0  0  0  0  0  0  0  0  0  0
    0.3530   -7.1718   -0.7033 N   0  0  0  0  0  0  0  0  0  0  0  0
  1  2  1  0  0  0  0
  2  3  1  0  0  0  0
  2  4  1  0  0  0  0
  2  5  1  0  0  0  0
  5  6  2  0  0  0  0
  5  7  1  0  0  0  0
  6  8  1  0  0  0  0
  7  9  1  0  0  0  0
  8  9  2  0  0  0  0
  8 10  1  0  0  0  0
  9 11  1  0  0  0  0
 10 12  3  0  0  0  0
 11 13  3  0  0  0  0
M  CHG  1   7  -1
M  END
