
 OpenBabel07101911533D

 41 40  0  0  0  0  0  0  0  0999 V2000
    0.7429   -0.2295   -0.3466 C   0  0  0  0  0  0  0  0  0  0  0  0
    0.4408   -1.5319    0.3931 C   0  0  0  0  0  0  0  0  0  0  0  0
    2.2299    0.1851   -0.1485 C   0  0  0  0  0  0  0  0  0  0  0  0
    2.7086    1.5099   -0.7234 N   0  3  0  0  0  0  0  0  0  0  0  0
    2.0423    1.7957   -2.0494 C   0  0  0  0  0  0  0  0  0  0  0  0
    2.5120    2.6162    0.2805 C   0  0  0  0  0  0  0  0  0  0  0  0
    4.1994    1.3029   -0.8907 C   0  0  0  0  0  0  0  0  0  0  0  0
    2.0643    3.2617   -2.5765 C   0  0  0  0  0  0  0  0  0  0  0  0
    1.0694    2.8473    0.7739 C   0  0  0  0  0  0  0  0  0  0  0  0
    5.0446    2.4391   -1.5047 C   0  0  0  0  0  0  0  0  0  0  0  0
    1.3720    3.3548   -3.9357 C   0  0  0  0  0  0  0  0  0  0  0  0
    6.5329    2.0939   -1.4549 C   0  0  0  0  0  0  0  0  0  0  0  0
    0.9925    4.0759    1.6780 C   0  0  0  0  0  0  0  0  0  0  0  0
    0.0276    0.5285    0.0129 H   0  0  0  0  0  0  0  0  0  0  0  0
    0.5371   -0.4165   -1.4222 H   0  0  0  0  0  0  0  0  0  0  0  0
    0.5974   -1.3997    1.4849 H   0  0  0  0  0  0  0  0  0  0  0  0
    1.0973   -2.3497    0.0268 H   0  0  0  0  0  0  0  0  0  0  0  0
   -0.6169   -1.8234    0.2201 H   0  0  0  0  0  0  0  0  0  0  0  0
    2.7799   -0.6702   -0.6063 H   0  0  0  0  0  0  0  0  0  0  0  0
    2.4730    0.1489    0.9387 H   0  0  0  0  0  0  0  0  0  0  0  0
    0.9550    1.6101   -1.9827 H   0  0  0  0  0  0  0  0  0  0  0  0
    2.4486    1.1061   -2.8233 H   0  0  0  0  0  0  0  0  0  0  0  0
    2.8821    3.5750   -0.1336 H   0  0  0  0  0  0  0  0  0  0  0  0
    3.1304    2.4274    1.1884 H   0  0  0  0  0  0  0  0  0  0  0  0
    4.3976    0.4152   -1.5361 H   0  0  0  0  0  0  0  0  0  0  0  0
    4.6424    1.0727    0.1077 H   0  0  0  0  0  0  0  0  0  0  0  0
    3.0710    3.6803   -2.7012 H   0  0  0  0  0  0  0  0  0  0  0  0
    1.5167    3.9332   -1.8842 H   0  0  0  0  0  0  0  0  0  0  0  0
    0.7354    1.9848    1.3822 H   0  0  0  0  0  0  0  0  0  0  0  0
    0.3780    3.0030   -0.0792 H   0  0  0  0  0  0  0  0  0  0  0  0
    4.9088    3.3918   -0.9552 H   0  0  0  0  0  0  0  0  0  0  0  0
    4.7980    2.5581   -2.5756 H   0  0  0  0  0  0  0  0  0  0  0  0
    1.9068    2.7306   -4.6830 H   0  0  0  0  0  0  0  0  0  0  0  0
    1.3757    4.4087   -4.2864 H   0  0  0  0  0  0  0  0  0  0  0  0
    0.3179    3.0119   -3.8613 H   0  0  0  0  0  0  0  0  0  0  0  0
    6.8671    1.9691   -0.4028 H   0  0  0  0  0  0  0  0  0  0  0  0
    7.1220    2.9144   -1.9168 H   0  0  0  0  0  0  0  0  0  0  0  0
    6.7339    1.1554   -2.0146 H   0  0  0  0  0  0  0  0  0  0  0  0
    1.6534    3.9493    2.5619 H   0  0  0  0  0  0  0  0  0  0  0  0
   -0.0511    4.2137    2.0318 H   0  0  0  0  0  0  0  0  0  0  0  0
    1.2995    4.9863    1.1202 H   0  0  0  0  0  0  0  0  0  0  0  0
  1  2  1  0  0  0  0
  1  3  1  0  0  0  0
  1 14  1  0  0  0  0
  1 15  1  0  0  0  0
  2 16  1  0  0  0  0
  2 17  1  0  0  0  0
  2 18  1  0  0  0  0
  3  4  1  0  0  0  0
  3 19  1  0  0  0  0
  3 20  1  0  0  0  0
  4  5  1  0  0  0  0
  4  6  1  0  0  0  0
  4  7  1  0  0  0  0
  5  8  1  0  0  0  0
  5 21  1  0  0  0  0
  5 22  1  0  0  0  0
  6  9  1  0  0  0  0
  6 23  1  0  0  0  0
  6 24  1  0  0  0  0
  7 10  1  0  0  0  0
  7 25  1  0  0  0  0
  7 26  1  0  0  0  0
  8 11  1  0  0  0  0
  8 27  1  0  0  0  0
  8 28  1  0  0  0  0
  9 13  1  0  0  0  0
  9 29  1  0  0  0  0
  9 30  1  0  0  0  0
 10 12  1  0  0  0  0
 10 31  1  0  0  0  0
 10 32  1  0  0  0  0
 11 33  1  0  0  0  0
 11 34  1  0  0  0  0
 11 35  1  0  0  0  0
 12 36  1  0  0  0  0
 12 37  1  0  0  0  0
 12 38  1  0  0  0  0
 13 39  1  0  0  0  0
 13 40  1  0  0  0  0
 13 41  1  0  0  0  0
M  CHG  1   4   1
M  END
