  1,1,4-TRIMETHYLCYCLOHEXANE.mol	7094-27-1
  NIST    07011515103D 1   1.00000  -353.81127
Copyright by the U.S. Sec. Commerce on behalf of U.S.A. All rights reserved.
 27 27  0  0  0  0  0  0  0  0999 V2000
    2.3087    0.7225    2.4129 C    0  0  0  0  0  0  0  0  0  0  0  0
    2.0205    0.9066    3.9169 C    0  0  0  0  0  0  0  0  0  0  0  0
    1.2662    2.2129    4.2039 C    0  0  0  0  0  0  0  0  0  0  0  0
    2.7692    2.0288    1.6781 C    0  0  0  0  0  0  0  0  0  0  0  0
    3.2149    3.0713    2.7293 C    0  0  0  0  0  0  0  0  0  0  0  0
    1.6211    2.5989    0.8185 C    0  0  0  0  0  0  0  0  0  0  0  0
    3.9541    1.7084    0.7489 C    0  0  0  0  0  0  0  0  0  0  0  0
    2.1254    3.4301    3.7630 C    0  0  0  0  0  0  0  0  0  0  0  0
    0.8363    2.3276    5.6709 C    0  0  0  0  0  0  0  0  0  0  0  0
    3.0724   -0.0569    2.2943 H    0  0  0  0  0  0  0  0  0  0  0  0
    1.4067    0.3354    1.9201 H    0  0  0  0  0  0  0  0  0  0  0  0
    1.4468    0.0469    4.2877 H    0  0  0  0  0  0  0  0  0  0  0  0
    2.9630    0.9087    4.4838 H    0  0  0  0  0  0  0  0  0  0  0  0
    0.3510    2.1964    3.5933 H    0  0  0  0  0  0  0  0  0  0  0  0
    4.0921    2.6703    3.2555 H    0  0  0  0  0  0  0  0  0  0  0  0
    3.5604    3.9826    2.2226 H    0  0  0  0  0  0  0  0  0  0  0  0
    0.7284    2.8211    1.4128 H    0  0  0  0  0  0  0  0  0  0  0  0
    1.9284    3.5266    0.3189 H    0  0  0  0  0  0  0  0  0  0  0  0
    1.3273    1.8831    0.0407 H    0  0  0  0  0  0  0  0  0  0  0  0
    3.6804    0.9424    0.0123 H    0  0  0  0  0  0  0  0  0  0  0  0
    4.2822    2.5991    0.1980 H    0  0  0  0  0  0  0  0  0  0  0  0
    4.8128    1.3311    1.3181 H    0  0  0  0  0  0  0  0  0  0  0  0
    2.6163    3.8672    4.6433 H    0  0  0  0  0  0  0  0  0  0  0  0
    1.4691    4.2153    3.3673 H    0  0  0  0  0  0  0  0  0  0  0  0
    1.7081    2.2946    6.3376 H    0  0  0  0  0  0  0  0  0  0  0  0
    0.3116    3.2724    5.8593 H    0  0  0  0  0  0  0  0  0  0  0  0
    0.1651    1.5089    5.9578 H    0  0  0  0  0  0  0  0  0  0  0  0
  1  2  1  0  0  0  0
  1 10  1  0  0  0  0
  1 11  1  0  0  0  0
  2  3  1  0  0  0  0
  2 12  1  0  0  0  0
  2 13  1  0  0  0  0
  3  8  1  0  0  0  0
  3  9  1  0  0  0  0
  3 14  1  0  0  0  0
  4  1  1  0  0  0  0
  4  6  1  0  0  0  0
  4  7  1  0  0  0  0
  5  4  1  0  0  0  0
  5 15  1  0  0  0  0
  5 16  1  0  0  0  0
  6 17  1  0  0  0  0
  6 18  1  0  0  0  0
  6 19  1  0  0  0  0
  7 20  1  0  0  0  0
  7 21  1  0  0  0  0
  7 22  1  0  0  0  0
  8  5  1  0  0  0  0
  8 23  1  0  0  0  0
  8 24  1  0  0  0  0
  9 25  1  0  0  0  0
  9 26  1  0  0  0  0
  9 27  1  0  0  0  0
M  END
