  1,1,1,2,2-PENTAFLUOROPROPANE.mol	1814-88-6
  NIST    06201412433D 1   1.00000  -615.33565
Copyright by the U.S. Sec. Commerce on behalf of U.S.A. All rights reserved.
 11 10  0  0  0  0  0  0  0  0999 V2000
   -1.3494   -0.6293    0.3031 C    0  0  0  0  0  0  0  0  0  0  0  0
    0.1021   -0.5478   -0.1034 C    0  0  0  0  0  0  0  0  0  0  0  0
    0.7055    0.8696   -0.0371 C    0  0  0  0  0  0  0  0  0  0  0  0
    0.8674   -1.3409    0.7034 F    0  0  0  0  0  0  0  0  0  0  0  0
    0.2626   -0.9862   -1.3871 F    0  0  0  0  0  0  0  0  0  0  0  0
    0.0284    1.6996   -0.8519 F    0  0  0  0  0  0  0  0  0  0  0  0
    1.9914    0.8640   -0.4059 F    0  0  0  0  0  0  0  0  0  0  0  0
    0.6200    1.3498    1.2174 F    0  0  0  0  0  0  0  0  0  0  0  0
   -1.6729   -1.6702    0.2238 H    0  0  0  0  0  0  0  0  0  0  0  0
   -1.9599   -0.0088   -0.3568 H    0  0  0  0  0  0  0  0  0  0  0  0
   -1.4699   -0.2901    1.3345 H    0  0  0  0  0  0  0  0  0  0  0  0
  1  2  1  0  0  0  0
  1  9  1  0  0  0  0
  1 10  1  0  0  0  0
  1 11  1  0  0  0  0
  2  3  1  0  0  0  0
  2  4  1  0  0  0  0
  2  5  1  0  0  0  0
  3  6  1  0  0  0  0
  3  7  1  0  0  0  0
  3  8  1  0  0  0  0
M  END
