  1,1-DICHLORO-2,2,2-TRIFLUOROETHANE.mol	306-83-2
  NIST    08031215053D 1   1.00000 -1296.72220
Copyright by the U.S. Sec. Commerce on behalf of U.S.A. All rights reserved.
  8  7  0  0  0  0  0  0  0  0999 V2000
   41.0072   20.0136    0.0235 C    0  0  0  0  0  0  0  0  0  0  0  0
   39.4670   20.0099    0.0168 C    0  0  0  0  0  0  0  0  0  0  0  0
   38.9522   20.6272    1.0838 F    0  0  0  0  0  0  0  0  0  0  0  0
   39.0237   20.6239   -1.0925 F    0  0  0  0  0  0  0  0  0  0  0  0
   39.0235   18.7424   -0.0044 F    0  0  0  0  0  0  0  0  0  0  0  0
   41.6285   21.6879   -0.0403 Cl   0  0  0  0  0  0  0  0  0  0  0  0
   41.6276   19.1199    1.4412 Cl   0  0  0  0  0  0  0  0  0  0  0  0
   41.3541   19.4978   -0.8704 H    0  0  0  0  0  0  0  0  0  0  0  0
  1  2  1  0
  1  6  1  0
  1  7  1  0
  2  3  1  0
  2  4  1  0
  2  5  1  0
  1  8  1  0
M  END
