  1,1-DIFLUORO-1,2-DICHLOROETHANE.mol	1649-08-7
  NIST    06191411473D 1   1.00000 -1197.48498
Copyright by the U.S. Sec. Commerce on behalf of U.S.A. All rights reserved.
  8  7  0  0  0  0  0  0  0  0999 V2000
   10.0010   18.0446   -0.0360 C    0  0  0  0  0  0  0  0  0  0  0  0
   11.5226   18.0343   -0.0702 C    0  0  0  0  0  0  0  0  0  0  0  0
    9.5005   19.1491   -0.6112 F    0  0  0  0  0  0  0  0  0  0  0  0
    9.3946   16.6002   -0.9511 Cl   0  0  0  0  0  0  0  0  0  0  0  0
    9.5338   17.9751    1.2201 F    0  0  0  0  0  0  0  0  0  0  0  0
   12.2022   19.4372    0.8270 Cl   0  0  0  0  0  0  0  0  0  0  0  0
   11.8894   17.1206    0.3962 H    0  0  0  0  0  0  0  0  0  0  0  0
   11.8621   18.0926   -1.1039 H    0  0  0  0  0  0  0  0  0  0  0  0
  1  2  1  0
  1  3  1  0
  1  4  1  0
  1  5  1  0
  2  6  1  0
  2  7  1  0
  2  8  1  0
M  END
