  1,1-DIPHENYLETHANE.mol	612-00-0
  NIST    07011502003D 1   1.00000  -541.92683
Copyright by the U.S. Sec. Commerce on behalf of U.S.A. All rights reserved.
 28 29  0  0  1  0  0  0  0  0999 V2000
    4.3058    4.7476    1.1559 C    0  0  0  0  0  0  0  0  0  0  0  0
    4.4257    3.2118    1.1231 C    0  0  0  0  0  0  0  0  0  0  0  0
    3.1660    2.5710    1.7080 C    0  0  0  0  0  0  0  0  0  0  0  0
    5.7021    2.6688    1.7678 C    0  0  0  0  0  0  0  0  0  0  0  0
    2.9633    2.4955    3.0933 C    0  0  0  0  0  0  0  0  0  0  0  0
    2.1618    2.0851    0.8617 C    0  0  0  0  0  0  0  0  0  0  0  0
    6.0651    1.3336    1.5287 C    0  0  0  0  0  0  0  0  0  0  0  0
    6.5310    3.4382    2.5923 C    0  0  0  0  0  0  0  0  0  0  0  0
    1.7882    1.9556    3.6150 C    0  0  0  0  0  0  0  0  0  0  0  0
    0.9841    1.5419    1.3798 C    0  0  0  0  0  0  0  0  0  0  0  0
    7.2152    0.7858    2.0912 C    0  0  0  0  0  0  0  0  0  0  0  0
    7.6858    2.8919    3.1619 C    0  0  0  0  0  0  0  0  0  0  0  0
    0.7929    1.4764    2.7599 C    0  0  0  0  0  0  0  0  0  0  0  0
    8.0330    1.5656    2.9140 C    0  0  0  0  0  0  0  0  0  0  0  0
    4.1938    5.1215    2.1795 H    0  0  0  0  0  0  0  0  0  0  0  0
    5.1854    5.2245    0.7086 H    0  0  0  0  0  0  0  0  0  0  0  0
    3.4206    5.0636    0.5948 H    0  0  0  0  0  0  0  0  0  0  0  0
    4.4630    2.9193    0.0645 H    0  0  0  0  0  0  0  0  0  0  0  0
    3.7386    2.8506    3.7674 H    0  0  0  0  0  0  0  0  0  0  0  0
    2.3031    2.1329   -0.2163 H    0  0  0  0  0  0  0  0  0  0  0  0
    5.4302    0.7178    0.8950 H    0  0  0  0  0  0  0  0  0  0  0  0
    6.2865    4.4765    2.7937 H    0  0  0  0  0  0  0  0  0  0  0  0
    1.6514    1.9040    4.6923 H    0  0  0  0  0  0  0  0  0  0  0  0
    0.2193    1.1677    0.7038 H    0  0  0  0  0  0  0  0  0  0  0  0
    7.4754   -0.2498    1.8873 H    0  0  0  0  0  0  0  0  0  0  0  0
    8.3137    3.5105    3.7982 H    0  0  0  0  0  0  0  0  0  0  0  0
   -0.1210    1.0519    3.1670 H    0  0  0  0  0  0  0  0  0  0  0  0
    8.9317    1.1418    3.3541 H    0  0  0  0  0  0  0  0  0  0  0  0
  1  2  1  0  0  0  0
  1 15  1  0  0  0  0
  1 16  1  0  0  0  0
  1 17  1  0  0  0  0
  2  3  1  0  0  0  0
  2  4  1  0  0  0  0
  2 18  1  6  0  0  0
  3  6  1  0  0  0  0
  4  8  1  0  0  0  0
  5  3  2  0  0  0  0
  5 19  1  0  0  0  0
  6 10  2  0  0  0  0
  6 20  1  0  0  0  0
  7  4  2  0  0  0  0
  7 21  1  0  0  0  0
  8 12  2  0  0  0  0
  8 22  1  0  0  0  0
  9  5  1  0  0  0  0
  9 23  1  0  0  0  0
 10 13  1  0  0  0  0
 10 24  1  0  0  0  0
 11  7  1  0  0  0  0
 11 25  1  0  0  0  0
 12 14  1  0  0  0  0
 12 26  1  0  0  0  0
 13  9  2  0  0  0  0
 13 27  1  0  0  0  0
 14 11  2  0  0  0  0
 14 28  1  0  0  0  0
M  END
