  1,1-DIETHYLCYCLOPENTANE.mol	2721-38-2
  NIST    08091210373D 1   1.00000  -353.80559
Copyright by the U.S. Sec. Commerce on behalf of U.S.A. All rights reserved.
 27 27  0  0  0  0  0  0  0  0999 V2000
    2.8092   -1.0502    1.4784 C    0  0  0  0  0  0  0  0  0  0  0  0
    3.3797    0.3622    1.8062 C    0  0  0  0  0  0  0  0  0  0  0  0
    4.0376   -1.9266    1.1345 C    0  0  0  0  0  0  0  0  0  0  0  0
    4.9120    0.2455    1.6294 C    0  0  0  0  0  0  0  0  0  0  0  0
    5.2472   -1.2546    1.8376 C    0  0  0  0  0  0  0  0  0  0  0  0
    5.2077   -1.6319    3.3470 C    0  0  0  0  0  0  0  0  0  0  0  0
    6.6192   -1.6686    1.2491 C    0  0  0  0  0  0  0  0  0  0  0  0
    6.2753   -1.0019    4.2518 C    0  0  0  0  0  0  0  0  0  0  0  0
    6.8116   -1.5437   -0.2688 C    0  0  0  0  0  0  0  0  0  0  0  0
    2.2670   -1.4564    2.3392 H    0  0  0  0  0  0  0  0  0  0  0  0
    2.0946   -1.0232    0.6488 H    0  0  0  0  0  0  0  0  0  0  0  0
    2.9591    1.1380    1.1574 H    0  0  0  0  0  0  0  0  0  0  0  0
    3.1280    0.6492    2.8334 H    0  0  0  0  0  0  0  0  0  0  0  0
    4.1933   -1.9219    0.0498 H    0  0  0  0  0  0  0  0  0  0  0  0
    3.9098   -2.9744    1.4333 H    0  0  0  0  0  0  0  0  0  0  0  0
    5.4670    0.9069    2.3042 H    0  0  0  0  0  0  0  0  0  0  0  0
    5.1859    0.5401    0.6092 H    0  0  0  0  0  0  0  0  0  0  0  0
    4.2198   -1.3779    3.7520 H    0  0  0  0  0  0  0  0  0  0  0  0
    5.2869   -2.7262    3.4213 H    0  0  0  0  0  0  0  0  0  0  0  0
    7.4000   -1.0731    1.7398 H    0  0  0  0  0  0  0  0  0  0  0  0
    6.8162   -2.7117    1.5378 H    0  0  0  0  0  0  0  0  0  0  0  0
    6.1150   -1.3056    5.2929 H    0  0  0  0  0  0  0  0  0  0  0  0
    7.2883   -1.3124    3.9750 H    0  0  0  0  0  0  0  0  0  0  0  0
    6.2440    0.0934    4.2249 H    0  0  0  0  0  0  0  0  0  0  0  0
    7.8414   -1.8066   -0.5374 H    0  0  0  0  0  0  0  0  0  0  0  0
    6.1503   -2.2134   -0.8289 H    0  0  0  0  0  0  0  0  0  0  0  0
    6.6347   -0.5236   -0.6281 H    0  0  0  0  0  0  0  0  0  0  0  0
  5  6  1  0
  5  7  1  0
  6  8  1  0
  7  9  1  0
  1  2  1  0
  2  4  1  0
  4  5  1  0
  5  3  1  0
  1  3  1  0
  1 10  1  0
  1 11  1  0
  2 12  1  0
  2 13  1  0
  3 14  1  0
  3 15  1  0
  4 16  1  0
  4 17  1  0
  6 18  1  0
  6 19  1  0
  7 20  1  0
  7 21  1  0
  8 22  1  0
  8 23  1  0
  8 24  1  0
  9 25  1  0
  9 26  1  0
  9 27  1  0
M  END
