  1,1-DIFLUORO-1-CHLOROETHANE.mol	75-68-3
  NIST    06201314153D 1   1.00000  -737.89924
Copyright by the U.S. Sec. Commerce on behalf of U.S.A. All rights reserved.
  8  7  0  0  0  0  0  0  0  0999 V2000
    0.9591    0.8989   -0.0317 C    0  0  0  0  0  0  0  0  0  0  0  0
   -0.2141    2.2486    0.2776 Cl   0  0  0  0  0  0  0  0  0  0  0  0
    2.1866    1.4463   -0.1694 F    0  0  0  0  0  0  0  0  0  0  0  0
    0.9860    0.1187    1.0710 F    0  0  0  0  0  0  0  0  0  0  0  0
    0.5869    0.0950   -1.2523 C    0  0  0  0  0  0  0  0  0  0  0  0
    0.5818    0.7346   -2.1369 H    0  0  0  0  0  0  0  0  0  0  0  0
    1.3331   -0.6954   -1.3785 H    0  0  0  0  0  0  0  0  0  0  0  0
   -0.3994   -0.3540   -1.1207 H    0  0  0  0  0  0  0  0  0  0  0  0
  1  2  1  0
  1  3  1  0
  1  4  1  0
  1  5  1  0
  5  6  1  0
  5  7  1  0
  5  8  1  0
M  END
