  1,1-DICHLOROTETRAFLUOROETHANE.mol	374-07-2
  NIST    08031215083D 1   1.00000 -1395.94748
Copyright by the U.S. Sec. Commerce on behalf of U.S.A. All rights reserved.
  8  7  0  0  0  0  0  0  0  0999 V2000
   21.9844   19.9964    0.0060 C    0  0  0  0  0  0  0  0  0  0  0  0
   23.5411   19.9899    0.0175 C    0  0  0  0  0  0  0  0  0  0  0  0
   24.1528   18.3141   -0.0248 Cl   0  0  0  0  0  0  0  0  0  0  0  0
   24.1512   20.8629    1.4494 Cl   0  0  0  0  0  0  0  0  0  0  0  0
   23.9456   20.6339   -1.0953 F    0  0  0  0  0  0  0  0  0  0  0  0
   21.5456   21.2594   -0.0105 F    0  0  0  0  0  0  0  0  0  0  0  0
   21.5451   19.3779   -1.0952 F    0  0  0  0  0  0  0  0  0  0  0  0
   21.4947   19.3755    1.0824 F    0  0  0  0  0  0  0  0  0  0  0  0
  1  2  1  0
  1  6  1  0
  1  7  1  0
  1  8  1  0
  2  3  1  0
  2  4  1  0
  2  5  1  0
M  END
