  1,2,3-TRICHLORO-2-METHYLBUTANE.mol	62521-69-1
  NIST    06261217273D 1   1.00000     0.00000
Copyright by the U.S. Sec. Commerce on behalf of U.S.A. All rights reserved.
 17 16  0  0  1  0  0  0  0  0999 V2000
    0.9221    0.0301   -0.1078 C    0  0  0  0  0  0  0  0  0  0  0  0
    0.4756   -0.8767    1.0504 C    0  0  0  0  0  0  0  0  0  0  0  0
    0.9108   -2.3505    0.8779 C    0  0  0  0  0  0  0  0  0  0  0  0
    0.4284   -3.3167    1.9540 C    0  0  0  0  0  0  0  0  0  0  0  0
    0.9373   -0.3262    2.4053 C    0  0  0  0  0  0  0  0  0  0  0  0
    0.4255   -3.0132   -0.7586 Cl   0  0  0  0  0  0  0  0  0  0  0  0
   -1.3661   -0.7503    1.0047 Cl   0  0  0  0  0  0  0  0  0  0  0  0
    2.7348    0.1263   -0.2525 Cl   0  0  0  0  0  0  0  0  0  0  0  0
    0.5528   -0.3388   -1.0623 H    0  0  0  0  0  0  0  0  0  0  0  0
    0.5713    1.0477    0.0618 H    0  0  0  0  0  0  0  0  0  0  0  0
    2.0032   -2.3403    0.8444 H    0  0  0  0  0  0  0  0  0  0  0  0
   -0.6630   -3.3453    1.9986 H    0  0  0  0  0  0  0  0  0  0  0  0
    0.8159   -3.0222    2.9349 H    0  0  0  0  0  0  0  0  0  0  0  0
    0.7957   -4.3223    1.7354 H    0  0  0  0  0  0  0  0  0  0  0  0
    0.6914    0.7369    2.4780 H    0  0  0  0  0  0  0  0  0  0  0  0
    2.0219   -0.4349    2.5064 H    0  0  0  0  0  0  0  0  0  0  0  0
    0.4489   -0.8445    3.2321 H    0  0  0  0  0  0  0  0  0  0  0  0
  1  8  1  0  0  0  0
  1  2  1  0  0  0  0
  1  9  1  0  0  0  0
  1 10  1  0  0  0  0
  2  7  1  0  0  0  0
  2  5  1  0  0  0  0
  2  3  1  0  0  0  0
  3  6  1  0  0  0  0
  3  4  1  0  0  0  0
  3 11  1  0  0  0  0
  4 12  1  0  0  0  0
  4 13  1  0  0  0  0
  4 14  1  0  0  0  0
  5 15  1  0  0  0  0
  5 16  1  0  0  0  0
  5 17  1  0  0  0  0
M  END
