  1,2,3,5-TETRAMETHYLBENZENE.mol	527-53-7
  NIST    07021518453D 1   1.00000  -389.51696
Copyright by the U.S. Sec. Commerce on behalf of U.S.A. All rights reserved.
 24 24  0  0  0  0  0  0  0  0999 V2000
    0.4056    3.3511    0.7632 C    0  0  0  0  0  0  0  0  0  0  0  0
    1.9136    3.2328    0.8094 C    0  0  0  0  0  0  0  0  0  0  0  0
    2.6933    4.4057    0.9002 C    0  0  0  0  0  0  0  0  0  0  0  0
    2.5589    1.9809    0.7688 C    0  0  0  0  0  0  0  0  0  0  0  0
    2.0358    5.7660    0.9538 C    0  0  0  0  0  0  0  0  0  0  0  0
    4.0866    4.3114    0.9458 C    0  0  0  0  0  0  0  0  0  0  0  0
    1.7824    0.6834    0.6783 C    0  0  0  0  0  0  0  0  0  0  0  0
    3.9576    1.9274    0.8170 C    0  0  0  0  0  0  0  0  0  0  0  0
    4.7430    3.0784    0.9016 C    0  0  0  0  0  0  0  0  0  0  0  0
    6.2520    2.9970    0.9188 C    0  0  0  0  0  0  0  0  0  0  0  0
   -0.0872    2.3805    0.6837 H    0  0  0  0  0  0  0  0  0  0  0  0
    0.0132    3.8454    1.6620 H    0  0  0  0  0  0  0  0  0  0  0  0
    0.0763    3.9563   -0.0919 H    0  0  0  0  0  0  0  0  0  0  0  0
    1.3695    5.8645    1.8210 H    0  0  0  0  0  0  0  0  0  0  0  0
    1.4212    5.9583    0.0645 H    0  0  0  0  0  0  0  0  0  0  0  0
    2.7839    6.5620    1.0184 H    0  0  0  0  0  0  0  0  0  0  0  0
    4.6736    5.2255    1.0191 H    0  0  0  0  0  0  0  0  0  0  0  0
    2.4635   -0.1730    0.6599 H    0  0  0  0  0  0  0  0  0  0  0  0
    1.1059    0.5461    1.5312 H    0  0  0  0  0  0  0  0  0  0  0  0
    1.1676    0.6329   -0.2292 H    0  0  0  0  0  0  0  0  0  0  0  0
    4.4454    0.9546    0.7879 H    0  0  0  0  0  0  0  0  0  0  0  0
    6.5969    2.0297    1.2998 H    0  0  0  0  0  0  0  0  0  0  0  0
    6.6713    3.1178   -0.0893 H    0  0  0  0  0  0  0  0  0  0  0  0
    6.6898    3.7821    1.5454 H    0  0  0  0  0  0  0  0  0  0  0  0
  1  2  1  0  0  0  0
  1 11  1  0  0  0  0
  1 12  1  0  0  0  0
  1 13  1  0  0  0  0
  2  3  2  0  0  0  0
  3  5  1  0  0  0  0
  3  6  1  0  0  0  0
  4  2  1  0  0  0  0
  4  7  1  0  0  0  0
  5 14  1  0  0  0  0
  5 15  1  0  0  0  0
  5 16  1  0  0  0  0
  6  9  2  0  0  0  0
  6 17  1  0  0  0  0
  7 18  1  0  0  0  0
  7 19  1  0  0  0  0
  7 20  1  0  0  0  0
  8  4  2  0  0  0  0
  8 21  1  0  0  0  0
  9  8  1  0  0  0  0
  9 10  1  0  0  0  0
 10 22  1  0  0  0  0
 10 23  1  0  0  0  0
 10 24  1  0  0  0  0
M  END
