  1,2,4,5-TETRAFLUOROBENZENE.mol	327-54-8
  NIST    08031215063D 1   1.00000  -629.16339
Copyright by the U.S. Sec. Commerce on behalf of U.S.A. All rights reserved.
 12 12  0  0  0  0  0  0  0  0999 V2000
    6.3292    1.8470   -0.6673 C    0  0  0  0  0  0  0  0  0  0  0  0
    6.8733    0.6117   -0.3373 C    0  0  0  0  0  0  0  0  0  0  0  0
    4.9466    2.0214   -0.7159 C    0  0  0  0  0  0  0  0  0  0  0  0
    7.1318    2.8860   -0.9429 F    0  0  0  0  0  0  0  0  0  0  0  0
    4.0916    0.9626   -0.4351 C    0  0  0  0  0  0  0  0  0  0  0  0
    4.4477    3.2244   -1.0373 F    0  0  0  0  0  0  0  0  0  0  0  0
    4.6357   -0.2727   -0.1051 C    0  0  0  0  0  0  0  0  0  0  0  0
    6.0183   -0.4471   -0.0565 C    0  0  0  0  0  0  0  0  0  0  0  0
    3.8331   -1.3117    0.1704 F    0  0  0  0  0  0  0  0  0  0  0  0
    6.5171   -1.6501    0.2648 F    0  0  0  0  0  0  0  0  0  0  0  0
    7.9477    0.4760   -0.2997 H    0  0  0  0  0  0  0  0  0  0  0  0
    3.0171    1.0983   -0.4728 H    0  0  0  0  0  0  0  0  0  0  0  0
  1  4  1  0
  3  6  1  0
  7  9  1  0
  8 10  1  0
  1  2  1  0
  2  8  2  0
  8  7  1  0
  7  5  2  0
  5  3  1  0
  1  3  2  0
  2 11  1  0
  5 12  1  0
M  END
