  1,2,3,4-TETRAFLUOROBENZENE.mol	551-62-2
  NIST    06201314163D 1   1.00000  -629.15809
Copyright by the U.S. Sec. Commerce on behalf of U.S.A. All rights reserved.
 12 12  0  0  0  0  0  0  0  0999 V2000
    7.1396    2.8767   -0.9404 F    0  0  0  0  0  0  0  0  0  0  0  0
    6.3232    1.8531   -0.6690 C    0  0  0  0  0  0  0  0  0  0  0  0
    6.8567    0.6106   -0.3371 C    0  0  0  0  0  0  0  0  0  0  0  0
    4.9387    2.0177   -0.7150 C    0  0  0  0  0  0  0  0  0  0  0  0
    8.1829    0.4467   -0.2912 F    0  0  0  0  0  0  0  0  0  0  0  0
    6.0003   -0.4538   -0.0549 C    0  0  0  0  0  0  0  0  0  0  0  0
    4.4500    3.2254   -1.0375 F    0  0  0  0  0  0  0  0  0  0  0  0
    4.0873    0.9577   -0.4338 C    0  0  0  0  0  0  0  0  0  0  0  0
    6.5410   -1.6406    0.2621 F    0  0  0  0  0  0  0  0  0  0  0  0
    4.6226   -0.2887   -0.1009 C    0  0  0  0  0  0  0  0  0  0  0  0
    3.0159    1.1173   -0.4779 H    0  0  0  0  0  0  0  0  0  0  0  0
    3.9832   -1.1348    0.1237 H    0  0  0  0  0  0  0  0  0  0  0  0
  1  2  1  0
  3  5  1  0
  4  7  1  0
  6  9  1  0
  2  3  1  0
  3  6  2  0
  6 10  1  0
 10  8  2  0
  8  4  1  0
  2  4  2  0
  8 11  1  0
 10 12  1  0
M  END
