  1,2,3,4-TETRAHYDRONAPHTHALENE.mol	119-64-2
  NIST    06301521423D 1   1.00000  -388.30643
Copyright by the U.S. Sec. Commerce on behalf of U.S.A. All rights reserved.
 22 23  0  0  0  0  0  0  0  0999 V2000
    3.4970    1.8691    1.4279 C    0  0  0  0  0  0  0  0  0  0  0  0
    3.3865    3.2708    1.4701 C    0  0  0  0  0  0  0  0  0  0  0  0
    4.6163    4.1629    1.5249 C    0  0  0  0  0  0  0  0  0  0  0  0
    2.1104    3.8525    1.4907 C    0  0  0  0  0  0  0  0  0  0  0  0
    2.3278    1.0946    1.4138 C    0  0  0  0  0  0  0  0  0  0  0  0
    4.8516    1.1815    1.3639 C    0  0  0  0  0  0  0  0  0  0  0  0
    5.9048    3.4508    1.0941 C    0  0  0  0  0  0  0  0  0  0  0  0
    0.9562    3.0744    1.4743 C    0  0  0  0  0  0  0  0  0  0  0  0
    1.0659    1.6823    1.4364 C    0  0  0  0  0  0  0  0  0  0  0  0
    6.0153    2.0876    1.7860 C    0  0  0  0  0  0  0  0  0  0  0  0
    4.7419    4.5294    2.5555 H    0  0  0  0  0  0  0  0  0  0  0  0
    4.4498    5.0566    0.9098 H    0  0  0  0  0  0  0  0  0  0  0  0
    2.0278    4.9376    1.5200 H    0  0  0  0  0  0  0  0  0  0  0  0
    2.4161    0.0100    1.3840 H    0  0  0  0  0  0  0  0  0  0  0  0
    5.0259    0.8397    0.3319 H    0  0  0  0  0  0  0  0  0  0  0  0
    4.8321    0.2724    1.9788 H    0  0  0  0  0  0  0  0  0  0  0  0
    6.7732    4.0790    1.3268 H    0  0  0  0  0  0  0  0  0  0  0  0
    5.9021    3.3045    0.0046 H    0  0  0  0  0  0  0  0  0  0  0  0
   -0.0216    3.5489    1.4893 H    0  0  0  0  0  0  0  0  0  0  0  0
    0.1745    1.0604    1.4257 H    0  0  0  0  0  0  0  0  0  0  0  0
    6.9699    1.6035    1.5467 H    0  0  0  0  0  0  0  0  0  0  0  0
    5.9977    2.2322    2.8756 H    0  0  0  0  0  0  0  0  0  0  0  0
  1  5  1  0  0  0  0
  2  1  2  0  0  0  0
  2  3  1  0  0  0  0
  3  7  1  0  0  0  0
  3 11  1  0  0  0  0
  3 12  1  0  0  0  0
  4  2  1  0  0  0  0
  4 13  1  0  0  0  0
  5  9  2  0  0  0  0
  5 14  1  0  0  0  0
  6  1  1  0  0  0  0
  6 15  1  0  0  0  0
  6 16  1  0  0  0  0
  7 10  1  0  0  0  0
  7 17  1  0  0  0  0
  7 18  1  0  0  0  0
  8  4  2  0  0  0  0
  8 19  1  0  0  0  0
  9  8  1  0  0  0  0
  9 20  1  0  0  0  0
 10  6  1  0  0  0  0
 10 21  1  0  0  0  0
 10 22  1  0  0  0  0
M  END
