  1,2,3-TRICHLOROBENZENE.mol	87-61-6
  NIST    06191418373D 1   1.00000 -1611.02503
Copyright by the U.S. Sec. Commerce on behalf of U.S.A. All rights reserved.
 12 12  0  0  0  0  0  0  0  0999 V2000
    6.3317    1.8584   -0.6702 C    0  0  0  0  0  0  0  0  0  0  0  0
    6.8688    0.6176   -0.3387 C    0  0  0  0  0  0  0  0  0  0  0  0
    4.9518    2.0361   -0.7199 C    0  0  0  0  0  0  0  0  0  0  0  0
    4.1038    0.9658   -0.4359 C    0  0  0  0  0  0  0  0  0  0  0  0
    4.6244   -0.2953   -0.0991 C    0  0  0  0  0  0  0  0  0  0  0  0
    2.3788    1.2327   -0.5093 Cl   0  0  0  0  0  0  0  0  0  0  0  0
    6.0202   -0.4523   -0.0552 C    0  0  0  0  0  0  0  0  0  0  0  0
    3.5676   -1.6285    0.2545 Cl   0  0  0  0  0  0  0  0  0  0  0  0
    6.7360   -1.9921    0.3558 Cl   0  0  0  0  0  0  0  0  0  0  0  0
    6.9919    2.6913   -0.8911 H    0  0  0  0  0  0  0  0  0  0  0  0
    7.9415    0.4652   -0.2966 H    0  0  0  0  0  0  0  0  0  0  0  0
    4.5201    2.9969   -0.9769 H    0  0  0  0  0  0  0  0  0  0  0  0
  4  6  1  0
  5  8  1  0
  7  9  1  0
  1  2  1  0
  2  7  2  0
  7  5  1  0
  5  4  2  0
  4  3  1  0
  1  3  2  0
  1 10  1  0
  2 11  1  0
  3 12  1  0
M  END
