  1,2,4,5-TETRAMETHYLBENZENE.mol	95-93-2
  NIST    07011513313D 1   1.00000  -389.51931
Copyright by the U.S. Sec. Commerce on behalf of U.S.A. All rights reserved.
 24 24  0  0  0  0  0  0  0  0999 V2000
    2.0811    3.0272    1.5061 C    0  0  0  0  0  0  0  0  0  0  0  0
    0.6168    2.6693    1.6054 C    0  0  0  0  0  0  0  0  0  0  0  0
    3.0816    2.0490    1.6619 C    0  0  0  0  0  0  0  0  0  0  0  0
    2.4699    4.3469    1.2560 C    0  0  0  0  0  0  0  0  0  0  0  0
    2.7271    0.6059    1.9334 C    0  0  0  0  0  0  0  0  0  0  0  0
    4.4203    2.4401    1.5600 C    0  0  0  0  0  0  0  0  0  0  0  0
    3.8085    4.7381    1.1541 C    0  0  0  0  0  0  0  0  0  0  0  0
    4.8090    3.7599    1.3099 C    0  0  0  0  0  0  0  0  0  0  0  0
    4.1631    6.1812    0.8827 C    0  0  0  0  0  0  0  0  0  0  0  0
    6.2733    4.1178    1.2107 C    0  0  0  0  0  0  0  0  0  0  0  0
    0.3286    1.9190    0.8572 H    0  0  0  0  0  0  0  0  0  0  0  0
    0.3661    2.2448    2.5868 H    0  0  0  0  0  0  0  0  0  0  0  0
   -0.0160    3.5492    1.4536 H    0  0  0  0  0  0  0  0  0  0  0  0
    1.6959    5.1035    1.1354 H    0  0  0  0  0  0  0  0  0  0  0  0
    3.6264   -0.0099    2.0329 H    0  0  0  0  0  0  0  0  0  0  0  0
    2.1444    0.4958    2.8576 H    0  0  0  0  0  0  0  0  0  0  0  0
    2.1179    0.1766    1.1267 H    0  0  0  0  0  0  0  0  0  0  0  0
    5.1942    1.6836    1.6806 H    0  0  0  0  0  0  0  0  0  0  0  0
    4.7464    6.2913   -0.0411 H    0  0  0  0  0  0  0  0  0  0  0  0
    3.2637    6.7968    0.7825 H    0  0  0  0  0  0  0  0  0  0  0  0
    4.7716    6.6106    1.6898 H    0  0  0  0  0  0  0  0  0  0  0  0
    6.5617    4.8673    1.9596 H    0  0  0  0  0  0  0  0  0  0  0  0
    6.9061    3.2376    1.3616 H    0  0  0  0  0  0  0  0  0  0  0  0
    6.5240    4.5432    0.2297 H    0  0  0  0  0  0  0  0  0  0  0  0
  1  2  1  0  0  0  0
  1  4  1  0  0  0  0
  2 11  1  0  0  0  0
  2 12  1  0  0  0  0
  2 13  1  0  0  0  0
  3  1  2  0  0  0  0
  3  5  1  0  0  0  0
  4  7  2  0  0  0  0
  4 14  1  0  0  0  0
  5 15  1  0  0  0  0
  5 16  1  0  0  0  0
  5 17  1  0  0  0  0
  6  3  1  0  0  0  0
  6 18  1  0  0  0  0
  7  8  1  0  0  0  0
  7  9  1  0  0  0  0
  8  6  2  0  0  0  0
  8 10  1  0  0  0  0
  9 19  1  0  0  0  0
  9 20  1  0  0  0  0
  9 21  1  0  0  0  0
 10 22  1  0  0  0  0
 10 23  1  0  0  0  0
 10 24  1  0  0  0  0
M  END
