  1,2-DIMETHYLNAPHTHALENE.mol	573-98-8
  NIST    07021519103D 1   1.00000  -464.52422
Copyright by the U.S. Sec. Commerce on behalf of U.S.A. All rights reserved.
 24 25  0  0  0  0  0  0  0  0999 V2000
    4.6524    3.9003    0.9399 C    0  0  0  0  0  0  0  0  0  0  0  0
    4.6541    5.4128    0.9872 C    0  0  0  0  0  0  0  0  0  0  0  0
    3.3960    3.2072    0.9119 C    0  0  0  0  0  0  0  0  0  0  0  0
    5.8391    3.1751    0.9240 C    0  0  0  0  0  0  0  0  0  0  0  0
    3.3719    1.7743    0.8689 C    0  0  0  0  0  0  0  0  0  0  0  0
    2.1468    3.8904    0.9256 C    0  0  0  0  0  0  0  0  0  0  0  0
    7.1992    3.8432    0.9516 C    0  0  0  0  0  0  0  0  0  0  0  0
    5.7916    1.7546    0.8806 C    0  0  0  0  0  0  0  0  0  0  0  0
    4.6026    1.0705    0.8541 C    0  0  0  0  0  0  0  0  0  0  0  0
    2.1250    1.0948    0.8424 C    0  0  0  0  0  0  0  0  0  0  0  0
    0.9526    3.2033    0.8989 C    0  0  0  0  0  0  0  0  0  0  0  0
    0.9374    1.7896    0.8569 C    0  0  0  0  0  0  0  0  0  0  0  0
    5.6652    5.8216    1.0086 H    0  0  0  0  0  0  0  0  0  0  0  0
    4.1456    5.8427    0.1147 H    0  0  0  0  0  0  0  0  0  0  0  0
    4.1310    5.7869    1.8765 H    0  0  0  0  0  0  0  0  0  0  0  0
    2.1318    4.9747    0.9575 H    0  0  0  0  0  0  0  0  0  0  0  0
    7.3431    4.4503    1.8539 H    0  0  0  0  0  0  0  0  0  0  0  0
    7.9970    3.0945    0.9324 H    0  0  0  0  0  0  0  0  0  0  0  0
    7.3521    4.5052    0.0904 H    0  0  0  0  0  0  0  0  0  0  0  0
    6.7296    1.2045    0.8687 H    0  0  0  0  0  0  0  0  0  0  0  0
    4.5901   -0.0165    0.8216 H    0  0  0  0  0  0  0  0  0  0  0  0
    2.1277    0.0075    0.8103 H    0  0  0  0  0  0  0  0  0  0  0  0
    0.0140    3.7513    0.9102 H    0  0  0  0  0  0  0  0  0  0  0  0
   -0.0101    1.2580    0.8364 H    0  0  0  0  0  0  0  0  0  0  0  0
  1  2  1  0  0  0  0
  1  4  1  0  0  0  0
  2 13  1  0  0  0  0
  2 14  1  0  0  0  0
  2 15  1  0  0  0  0
  3  1  2  0  0  0  0
  3  5  1  0  0  0  0
  4  7  1  0  0  0  0
  4  8  2  0  0  0  0
  5 10  1  0  0  0  0
  6  3  1  0  0  0  0
  6 16  1  0  0  0  0
  7 17  1  0  0  0  0
  7 18  1  0  0  0  0
  7 19  1  0  0  0  0
  8  9  1  0  0  0  0
  8 20  1  0  0  0  0
  9  5  2  0  0  0  0
  9 21  1  0  0  0  0
 10 12  2  0  0  0  0
 10 22  1  0  0  0  0
 11  6  2  0  0  0  0
 11 23  1  0  0  0  0
 12 11  1  0  0  0  0
 12 24  1  0  0  0  0
M  END
