  1,2-DIBROMOBUTANE.mol	533-98-2
  NIST    06201314163D 1   1.00000 -5300.66682
Copyright by the U.S. Sec. Commerce on behalf of U.S.A. All rights reserved.
 14 13  0  0  0  0  0  0  0  0999 V2000
    2.4267    1.6087    0.0895 C    0  0  0  0  0  0  0  0  0  0  0  0
    1.3126    0.5837   -0.0513 C    0  0  0  0  0  0  0  0  0  0  0  0
    0.3026    0.7825   -1.1844 C    0  0  0  0  0  0  0  0  0  0  0  0
    2.2767   -1.1537   -0.4052 Br   0  0  0  0  0  0  0  0  0  0  0  0
    1.8070    3.2619    1.0096 Br   0  0  0  0  0  0  0  0  0  0  0  0
   -0.6805    1.9487   -0.9953 C    0  0  0  0  0  0  0  0  0  0  0  0
    3.2315    1.2420    0.7210 H    0  0  0  0  0  0  0  0  0  0  0  0
    2.8206    1.9259   -0.8761 H    0  0  0  0  0  0  0  0  0  0  0  0
    0.8232    0.4132    0.9086 H    0  0  0  0  0  0  0  0  0  0  0  0
    0.8550    0.9025   -2.1249 H    0  0  0  0  0  0  0  0  0  0  0  0
   -0.2663   -0.1483   -1.2798 H    0  0  0  0  0  0  0  0  0  0  0  0
   -1.4183    1.9319   -1.8050 H    0  0  0  0  0  0  0  0  0  0  0  0
   -1.2224    1.8650   -0.0466 H    0  0  0  0  0  0  0  0  0  0  0  0
   -0.1815    2.9200   -1.0071 H    0  0  0  0  0  0  0  0  0  0  0  0
  1  2  1  0
  1  5  1  0
  2  3  1  0
  2  4  1  0
  3  6  1  0
  1  7  1  0
  1  8  1  0
  2  9  1  0
  3 10  1  0
  3 11  1  0
  6 12  1  0
  6 13  1  0
  6 14  1  0
M  END
