
 OpenBabel11191916203D

 13 12  0  0  0  0  0  0  0  0999 V2000
    0.7131    2.2747    1.5725 C   0  0  0  0  0  0  0  0  0  0  0  0
   -0.2391    1.8730    2.5185 O   0  0  0  0  0  0  0  0  0  0  0  0
    1.9580    1.3823    1.6650 C   0  0  1  0  0  0  0  0  0  0  0  0
    1.6197   -0.0820    1.3788 C   0  0  0  0  0  0  0  0  0  0  0  0
    2.9170    1.8117    0.7344 O   0  0  0  0  0  0  0  0  0  0  0  0
    0.2842    2.2054    0.5473 H   0  0  0  0  0  0  0  0  0  0  0  0
    1.0149    3.3260    1.7786 H   0  0  0  0  0  0  0  0  0  0  0  0
   -1.0130    2.4842    2.4066 H   0  0  0  0  0  0  0  0  0  0  0  0
    2.3804    1.4355    2.6962 H   0  0  0  0  0  0  0  0  0  0  0  0
    0.8812   -0.4646    2.1149 H   0  0  0  0  0  0  0  0  0  0  0  0
    1.2004   -0.1909    0.3556 H   0  0  0  0  0  0  0  0  0  0  0  0
    2.5388   -0.7012    1.4542 H   0  0  0  0  0  0  0  0  0  0  0  0
    3.3726    2.5990    1.1326 H   0  0  0  0  0  0  0  0  0  0  0  0
  1  2  1  0  0  0  0
  1  3  1  0  0  0  0
  1  6  1  0  0  0  0
  1  7  1  0  0  0  0
  2  8  1  0  0  0  0
  3  4  1  0  0  0  0
  3  5  1  0  0  0  0
  3  9  1  1  0  0  0
  4 10  1  0  0  0  0
  4 11  1  0  0  0  0
  4 12  1  0  0  0  0
  5 13  1  0  0  0  0
M  END
