
 OpenBabel05181710313D

 13 12  0  0  0  0  0  0  0  0999 V2000
    0.7815    2.3706    1.7672 C   0  0  0  0  0  0  0  0  0  0  0  0
    0.8819    2.0756    3.1357 O   0  0  0  0  0  0  0  0  0  0  0  0
    2.0999    2.0782    1.0323 C   0  0  2  0  0  0  0  0  0  0  0  0
    2.5009    0.6004    1.1257 C   0  0  0  0  0  0  0  0  0  0  0  0
    3.1316    2.9097    1.5025 O   0  0  0  0  0  0  0  0  0  0  0  0
   -0.0341    1.7529    1.3342 H   0  0  0  0  0  0  0  0  0  0  0  0
    0.4862    3.4346    1.6146 H   0  0  0  0  0  0  0  0  0  0  0  0
    1.2015    2.8999    3.5872 H   0  0  0  0  0  0  0  0  0  0  0  0
    1.9440    2.3120   -0.0432 H   0  0  0  0  0  0  0  0  0  0  0  0
    2.6762    0.3040    2.1818 H   0  0  0  0  0  0  0  0  0  0  0  0
    1.6995   -0.0415    0.7017 H   0  0  0  0  0  0  0  0  0  0  0  0
    3.4338    0.4275    0.5484 H   0  0  0  0  0  0  0  0  0  0  0  0
    3.3498    2.6326    2.4305 H   0  0  0  0  0  0  0  0  0  0  0  0
  1  2  1  0  0  0  0
  1  3  1  0  0  0  0
  1  6  1  0  0  0  0
  1  7  1  0  0  0  0
  2  8  1  0  0  0  0
  3  4  1  0  0  0  0
  3  5  1  0  0  0  0
  3  9  1  6  0  0  0
  4 10  1  0  0  0  0
  4 11  1  0  0  0  0
  4 12  1  0  0  0  0
  5 13  1  0  0  0  0
M  END
