  1,2-DIPHENYLETHANE.mol	103-29-7
  NIST    07011521443D 1   1.00000  -541.93035
Copyright by the U.S. Sec. Commerce on behalf of U.S.A. All rights reserved.
 28 29  0  0  0  0  0  0  0  0999 V2000
    4.8590    2.1454    2.4862 C    0  0  0  0  0  0  0  0  0  0  0  0
    6.0165    1.2133    2.0409 C    0  0  0  0  0  0  0  0  0  0  0  0
    7.3743    1.8716    2.1549 C    0  0  0  0  0  0  0  0  0  0  0  0
    3.5012    1.4869    2.3724 C    0  0  0  0  0  0  0  0  0  0  0  0
    7.9208    2.5853    1.0796 C    0  0  0  0  0  0  0  0  0  0  0  0
    8.1019    1.8153    3.3516 C    0  0  0  0  0  0  0  0  0  0  0  0
    2.9522    0.7782    3.4497 C    0  0  0  0  0  0  0  0  0  0  0  0
    2.7762    1.5380    1.1739 C    0  0  0  0  0  0  0  0  0  0  0  0
    9.1558    3.2249    1.1949 C    0  0  0  0  0  0  0  0  0  0  0  0
    9.3371    2.4529    3.4729 C    0  0  0  0  0  0  0  0  0  0  0  0
    1.7173    0.1384    3.3346 C    0  0  0  0  0  0  0  0  0  0  0  0
    1.5411    0.9001    1.0528 C    0  0  0  0  0  0  0  0  0  0  0  0
    9.8685    3.1613    2.3935 C    0  0  0  0  0  0  0  0  0  0  0  0
    1.0072    0.1967    2.1342 C    0  0  0  0  0  0  0  0  0  0  0  0
    4.8881    3.0565    1.8756 H    0  0  0  0  0  0  0  0  0  0  0  0
    5.0394    2.4589    3.5219 H    0  0  0  0  0  0  0  0  0  0  0  0
    5.9873    0.3021    2.6514 H    0  0  0  0  0  0  0  0  0  0  0  0
    5.8361    0.8999    1.0052 H    0  0  0  0  0  0  0  0  0  0  0  0
    7.3743    2.6348    0.1399 H    0  0  0  0  0  0  0  0  0  0  0  0
    7.6975    1.2599    4.1956 H    0  0  0  0  0  0  0  0  0  0  0  0
    3.4967    0.7329    4.3908 H    0  0  0  0  0  0  0  0  0  0  0  0
    3.1826    2.0896    0.3282 H    0  0  0  0  0  0  0  0  0  0  0  0
    9.5634    3.7690    0.3466 H    0  0  0  0  0  0  0  0  0  0  0  0
    9.8868    2.3923    4.4088 H    0  0  0  0  0  0  0  0  0  0  0  0
    1.3077   -0.4017    4.1845 H    0  0  0  0  0  0  0  0  0  0  0  0
    0.9935    0.9567    0.1154 H    0  0  0  0  0  0  0  0  0  0  0  0
   10.8320    3.6558    2.4843 H    0  0  0  0  0  0  0  0  0  0  0  0
    0.0438   -0.2980    2.0436 H    0  0  0  0  0  0  0  0  0  0  0  0
  1  2  1  0  0  0  0
  1  4  1  0  0  0  0
  1 15  1  0  0  0  0
  1 16  1  0  0  0  0
  2  3  1  0  0  0  0
  2 17  1  0  0  0  0
  2 18  1  0  0  0  0
  3  5  2  0  0  0  0
  4  8  1  0  0  0  0
  5  9  1  0  0  0  0
  5 19  1  0  0  0  0
  6  3  1  0  0  0  0
  6 20  1  0  0  0  0
  7  4  2  0  0  0  0
  7 21  1  0  0  0  0
  8 12  2  0  0  0  0
  8 22  1  0  0  0  0
  9 13  2  0  0  0  0
  9 23  1  0  0  0  0
 10  6  2  0  0  0  0
 10 24  1  0  0  0  0
 11  7  1  0  0  0  0
 11 25  1  0  0  0  0
 12 14  1  0  0  0  0
 12 26  1  0  0  0  0
 13 10  1  0  0  0  0
 13 27  1  0  0  0  0
 14 11  2  0  0  0  0
 14 28  1  0  0  0  0
M  END
