  1,2-PENTADIENE.mol	591-95-7
  NIST    06301516523D 1   1.00000  -195.28946
Copyright by the U.S. Sec. Commerce on behalf of U.S.A. All rights reserved.
 13 12  0  0  0  0  0  0  0  0999 V2000
    0.8278    2.0166    1.0186 C    0  0  0  0  0  0  0  0  0  0  0  0
    1.1673    3.4968    1.1973 C    0  0  0  0  0  0  0  0  0  0  0  0
    1.9689    1.0611    1.3050 C    0  0  0  0  0  0  0  0  0  0  0  0
    3.1773    1.3987    1.6789 C    0  0  0  0  0  0  0  0  0  0  0  0
    4.3871    1.7280    2.0521 C    0  0  0  0  0  0  0  0  0  0  0  0
    0.4758    1.8353   -0.0078 H    0  0  0  0  0  0  0  0  0  0  0  0
   -0.0188    1.7465    1.6672 H    0  0  0  0  0  0  0  0  0  0  0  0
    1.4849    3.7078    2.2242 H    0  0  0  0  0  0  0  0  0  0  0  0
    0.2968    4.1232    0.9743 H    0  0  0  0  0  0  0  0  0  0  0  0
    1.9834    3.7979    0.5316 H    0  0  0  0  0  0  0  0  0  0  0  0
    1.7461   -0.0009    1.1827 H    0  0  0  0  0  0  0  0  0  0  0  0
    4.6559    1.8244    3.1029 H    0  0  0  0  0  0  0  0  0  0  0  0
    5.1781    1.9181    1.3282 H    0  0  0  0  0  0  0  0  0  0  0  0
  1  2  1  0  0  0  0
  1  3  1  0  0  0  0
  1  6  1  0  0  0  0
  1  7  1  0  0  0  0
  2  8  1  0  0  0  0
  2  9  1  0  0  0  0
  2 10  1  0  0  0  0
  3  4  2  0  0  0  0
  3 11  1  0  0  0  0
  4  5  2  0  0  0  0
  5 12  1  0  0  0  0
  5 13  1  0  0  0  0
M  END
