  1,2-DIIODOPROPANE.mol	598-29-8
  NIST    07161210223D 1   1.00000     0.00000
Copyright by the U.S. Sec. Commerce on behalf of U.S.A. All rights reserved.
 11 10  0  0  1  0  0  0  0  0999 V2000
    0.9800    0.0569    0.0932 C    0  0  0  0  0  0  0  0  0  0  0  0
    0.5791   -1.1196   -0.7562 C    0  0  0  0  0  0  0  0  0  0  0  0
    0.9744   -2.4939   -0.2484 C    0  0  0  0  0  0  0  0  0  0  0  0
   -1.6888   -1.0002   -0.8577 I    0  0  0  0  0  0  0  0  0  0  0  0
    3.2077    0.3390    0.0807 I    0  0  0  0  0  0  0  0  0  0  0  0
    0.6128    1.0071   -0.2847 H    0  0  0  0  0  0  0  0  0  0  0  0
    0.7292   -0.0670    1.1453 H    0  0  0  0  0  0  0  0  0  0  0  0
    0.8478   -0.9700   -1.8014 H    0  0  0  0  0  0  0  0  0  0  0  0
    0.6204   -2.6594    0.7737 H    0  0  0  0  0  0  0  0  0  0  0  0
    2.0682   -2.5754   -0.2518 H    0  0  0  0  0  0  0  0  0  0  0  0
    0.5717   -3.2815   -0.8892 H    0  0  0  0  0  0  0  0  0  0  0  0
  1  5  1  0  0  0  0
  1  2  1  0  0  0  0
  1  6  1  0  0  0  0
  1  7  1  0  0  0  0
  2  4  1  0  0  0  0
  2  3  1  0  0  0  0
  2  8  1  0  0  0  0
  3  9  1  0  0  0  0
  3 10  1  0  0  0  0
  3 11  1  0  0  0  0
M  END
