  1,2-BUTADIENE.mol	590-19-2
  NIST    06301516323D 1   1.00000  -155.97583
Copyright by the U.S. Sec. Commerce on behalf of U.S.A. All rights reserved.
 10  9  0  0  0  0  0  0  0  0999 V2000
    2.7328    2.1185    2.3042 C    0  0  0  0  0  0  0  0  0  0  0  0
    1.5836    2.0999    1.6779 C    0  0  0  0  0  0  0  0  0  0  0  0
    0.9531    0.8735    1.0616 C    0  0  0  0  0  0  0  0  0  0  0  0
    3.8814    2.1331    2.9295 C    0  0  0  0  0  0  0  0  0  0  0  0
    1.0276    3.0350    1.5867 H    0  0  0  0  0  0  0  0  0  0  0  0
    1.5819   -0.0097    1.2028 H    0  0  0  0  0  0  0  0  0  0  0  0
   -0.0294    0.6732    1.5084 H    0  0  0  0  0  0  0  0  0  0  0  0
    0.7938    1.0158   -0.0152 H    0  0  0  0  0  0  0  0  0  0  0  0
    3.9513    1.9611    4.0024 H    0  0  0  0  0  0  0  0  0  0  0  0
    4.8168    2.3195    2.4041 H    0  0  0  0  0  0  0  0  0  0  0  0
  1  2  2  0  0  0  0
  1  4  2  0  0  0  0
  2  3  1  0  0  0  0
  2  5  1  0  0  0  0
  3  6  1  0  0  0  0
  3  7  1  0  0  0  0
  3  8  1  0  0  0  0
  4  9  1  0  0  0  0
  4 10  1  0  0  0  0
M  END
