  1,2-DIMETHYLCYCLOHEXENE.mol	1674-10-8
  NIST    06301520243D 1   1.00000  -313.28312
Copyright by the U.S. Sec. Commerce on behalf of U.S.A. All rights reserved.
 22 22  0  0  0  0  0  0  0  0999 V2000
    1.7416    4.5287    1.9748 C    0  0  0  0  0  0  0  0  0  0  0  0
    2.4639    3.2046    1.8916 C    0  0  0  0  0  0  0  0  0  0  0  0
    1.9350    2.0119    2.2269 C    0  0  0  0  0  0  0  0  0  0  0  0
    3.8928    3.3397    1.3903 C    0  0  0  0  0  0  0  0  0  0  0  0
    0.5142    1.7922    2.6904 C    0  0  0  0  0  0  0  0  0  0  0  0
    2.7423    0.7253    2.1593 C    0  0  0  0  0  0  0  0  0  0  0  0
    4.5401    2.0143    0.9754 C    0  0  0  0  0  0  0  0  0  0  0  0
    4.2536    0.9392    2.0252 C    0  0  0  0  0  0  0  0  0  0  0  0
    2.3386    5.2510    2.5498 H    0  0  0  0  0  0  0  0  0  0  0  0
    0.7582    4.4699    2.4451 H    0  0  0  0  0  0  0  0  0  0  0  0
    1.6101    4.9673    0.9751 H    0  0  0  0  0  0  0  0  0  0  0  0
    4.5005    3.8205    2.1748 H    0  0  0  0  0  0  0  0  0  0  0  0
    3.9083    4.0442    0.5455 H    0  0  0  0  0  0  0  0  0  0  0  0
    0.0347    1.0087    2.0863 H    0  0  0  0  0  0  0  0  0  0  0  0
   -0.1151    2.6822    2.6302 H    0  0  0  0  0  0  0  0  0  0  0  0
    0.4921    1.4338    3.7298 H    0  0  0  0  0  0  0  0  0  0  0  0
    2.3761    0.1204    1.3131 H    0  0  0  0  0  0  0  0  0  0  0  0
    2.5273    0.1234    3.0547 H    0  0  0  0  0  0  0  0  0  0  0  0
    5.6194    2.1490    0.8320 H    0  0  0  0  0  0  0  0  0  0  0  0
    4.1297    1.6924    0.0077 H    0  0  0  0  0  0  0  0  0  0  0  0
    4.7479   -0.0058    1.7679 H    0  0  0  0  0  0  0  0  0  0  0  0
    4.6662    1.2597    2.9923 H    0  0  0  0  0  0  0  0  0  0  0  0
  1  2  1  0  0  0  0
  1  9  1  0  0  0  0
  1 10  1  0  0  0  0
  1 11  1  0  0  0  0
  2  4  1  0  0  0  0
  3  2  2  0  0  0  0
  3  5  1  0  0  0  0
  4  7  1  0  0  0  0
  4 12  1  0  0  0  0
  4 13  1  0  0  0  0
  5 14  1  0  0  0  0
  5 15  1  0  0  0  0
  5 16  1  0  0  0  0
  6  3  1  0  0  0  0
  6 17  1  0  0  0  0
  6 18  1  0  0  0  0
  7  8  1  0  0  0  0
  7 19  1  0  0  0  0
  7 20  1  0  0  0  0
  8  6  1  0  0  0  0
  8 21  1  0  0  0  0
  8 22  1  0  0  0  0
M  END
