  1,2-DIBROMOCHLOROTRIFLUOROETHANE.mol	354-51-8
  NIST    08031215073D 1   1.00000 -5979.30808
Copyright by the U.S. Sec. Commerce on behalf of U.S.A. All rights reserved.
  8  7  0  0  0  0  0  0  0  0999 V2000
   19.7685   39.8065   -0.8392 Br   0  0  0  0  0  0  0  0  0  0  0  0
   20.0023   38.0900    0.0604 C    0  0  0  0  0  0  0  0  0  0  0  0
   21.4495   37.5230   -0.0722 C    0  0  0  0  0  0  0  0  0  0  0  0
   19.7292   38.2310    1.3658 F    0  0  0  0  0  0  0  0  0  0  0  0
   19.1467   37.1947   -0.4556 F    0  0  0  0  0  0  0  0  0  0  0  0
   22.7301   38.7370    0.7698 Br   0  0  0  0  0  0  0  0  0  0  0  0
   21.8730   37.2011   -1.7684 Cl   0  0  0  0  0  0  0  0  0  0  0  0
   21.4572   36.3579    0.6103 F    0  0  0  0  0  0  0  0  0  0  0  0
  1  2  1  0
  2  3  1  0
  2  4  1  0
  2  5  1  0
  3  6  1  0
  3  7  1  0
  3  8  1  0
M  END
