  1,3,5-TRIFLUOROBENZENE.mol	372-38-3
  NIST    08031215083D 1   1.00000  -529.94657
Copyright by the U.S. Sec. Commerce on behalf of U.S.A. All rights reserved.
 12 12  0  0  0  0  0  0  0  0999 V2000
    6.3156    1.8382   -0.6649 C    0  0  0  0  0  0  0  0  0  0  0  0
    6.8814    0.6107   -0.3371 C    0  0  0  0  0  0  0  0  0  0  0  0
    4.9416    2.0462   -0.7225 C    0  0  0  0  0  0  0  0  0  0  0  0
    7.1336    2.8700   -0.9386 F    0  0  0  0  0  0  0  0  0  0  0  0
    6.0075   -0.4351   -0.0598 C    0  0  0  0  0  0  0  0  0  0  0  0
    4.6244   -0.2953   -0.0991 C    0  0  0  0  0  0  0  0  0  0  0  0
    6.5231   -1.6352    0.2607 F    0  0  0  0  0  0  0  0  0  0  0  0
    4.1243    0.9585   -0.4340 C    0  0  0  0  0  0  0  0  0  0  0  0
    2.7908    1.1267   -0.4808 F    0  0  0  0  0  0  0  0  0  0  0  0
    7.9551    0.4752   -0.2995 H    0  0  0  0  0  0  0  0  0  0  0  0
    4.5265    3.0124   -0.9807 H    0  0  0  0  0  0  0  0  0  0  0  0
    3.9657   -1.1261    0.1214 H    0  0  0  0  0  0  0  0  0  0  0  0
  1  4  1  0
  5  7  1  0
  8  9  1  0
  1  2  1  0
  2  5  2  0
  5  6  1  0
  6  8  2  0
  8  3  1  0
  1  3  2  0
  2 10  1  0
  3 11  1  0
  6 12  1  0
M  END
