  1,3-DIMETHYL-4-ETHENYLBENZENE.mol	2234-20-0
  NIST    06301520423D 1   1.00000  -388.28197
Copyright by the U.S. Sec. Commerce on behalf of U.S.A. All rights reserved.
 22 22  0  0  0  0  0  0  0  0999 V2000
    5.5672    2.4448    2.0526 C    0  0  0  0  0  0  0  0  0  0  0  0
    4.3478    1.9842    1.5447 C    0  0  0  0  0  0  0  0  0  0  0  0
    5.7319    3.7350    2.5670 C    0  0  0  0  0  0  0  0  0  0  0  0
    3.2323    2.8546    1.5438 C    0  0  0  0  0  0  0  0  0  0  0  0
    4.2562    0.5776    0.9952 C    0  0  0  0  0  0  0  0  0  0  0  0
    3.3939    4.1452    2.0760 C    0  0  0  0  0  0  0  0  0  0  0  0
    1.9306    2.4123    1.0111 C    0  0  0  0  0  0  0  0  0  0  0  0
    4.6161    4.5812    2.5741 C    0  0  0  0  0  0  0  0  0  0  0  0
    7.0715    4.2051    3.0831 C    0  0  0  0  0  0  0  0  0  0  0  0
    0.9637    3.2004    0.5229 C    0  0  0  0  0  0  0  0  0  0  0  0
    6.4213    1.7697    2.0450 H    0  0  0  0  0  0  0  0  0  0  0  0
    5.2298    0.0800    1.0389 H    0  0  0  0  0  0  0  0  0  0  0  0
    3.5473   -0.0399    1.5623 H    0  0  0  0  0  0  0  0  0  0  0  0
    3.9231    0.5684   -0.0495 H    0  0  0  0  0  0  0  0  0  0  0  0
    2.5341    4.8079    2.1217 H    0  0  0  0  0  0  0  0  0  0  0  0
    1.7550    1.3378    1.0123 H    0  0  0  0  0  0  0  0  0  0  0  0
    4.7021    5.5849    2.9851 H    0  0  0  0  0  0  0  0  0  0  0  0
    6.9592    4.8434    3.9668 H    0  0  0  0  0  0  0  0  0  0  0  0
    7.7160    3.3625    3.3542 H    0  0  0  0  0  0  0  0  0  0  0  0
    7.6059    4.7949    2.3260 H    0  0  0  0  0  0  0  0  0  0  0  0
    1.0728    4.2792    0.4472 H    0  0  0  0  0  0  0  0  0  0  0  0
    0.0259    2.7833    0.1677 H    0  0  0  0  0  0  0  0  0  0  0  0
  1  2  2  0  0  0  0
  1 11  1  0  0  0  0
  2  4  1  0  0  0  0
  2  5  1  0  0  0  0
  3  1  1  0  0  0  0
  3  9  1  0  0  0  0
  4  6  2  0  0  0  0
  4  7  1  0  0  0  0
  5 12  1  0  0  0  0
  5 13  1  0  0  0  0
  5 14  1  0  0  0  0
  6  8  1  0  0  0  0
  6 15  1  0  0  0  0
  7 10  2  0  0  0  0
  7 16  1  0  0  0  0
  8  3  2  0  0  0  0
  8 17  1  0  0  0  0
  9 18  1  0  0  0  0
  9 19  1  0  0  0  0
  9 20  1  0  0  0  0
 10 21  1  0  0  0  0
 10 22  1  0  0  0  0
M  END
