  1,3-DIMETHYL-2-ETHENYLBENZENE.mol	2039-90-9
  NIST    06301521153D 1   1.00000  -388.27669
Copyright by the U.S. Sec. Commerce on behalf of U.S.A. All rights reserved.
 22 22  0  0  0  0  0  0  0  0999 V2000
    0.9829    4.9474    1.3126 C    0  0  0  0  0  0  0  0  0  0  0  0
    1.4705    3.7876    1.7701 C    0  0  0  0  0  0  0  0  0  0  0  0
    2.8680    3.3032    1.7073 C    0  0  0  0  0  0  0  0  0  0  0  0
    3.9821    4.1312    1.9894 C    0  0  0  0  0  0  0  0  0  0  0  0
    3.0764    1.9374    1.3833 C    0  0  0  0  0  0  0  0  0  0  0  0
    3.8510    5.5855    2.3877 C    0  0  0  0  0  0  0  0  0  0  0  0
    5.2693    3.5813    1.9249 C    0  0  0  0  0  0  0  0  0  0  0  0
    1.9117    1.0193    1.0822 C    0  0  0  0  0  0  0  0  0  0  0  0
    4.3765    1.4324    1.3186 C    0  0  0  0  0  0  0  0  0  0  0  0
    5.4739    2.2480    1.5865 C    0  0  0  0  0  0  0  0  0  0  0  0
    1.5998    5.6880    0.8132 H    0  0  0  0  0  0  0  0  0  0  0  0
   -0.0735    5.1835    1.4081 H    0  0  0  0  0  0  0  0  0  0  0  0
    0.7592    3.0903    2.2132 H    0  0  0  0  0  0  0  0  0  0  0  0
    3.7843    6.2466    1.5138 H    0  0  0  0  0  0  0  0  0  0  0  0
    2.9576    5.7665    2.9924 H    0  0  0  0  0  0  0  0  0  0  0  0
    4.7283    5.9024    2.9613 H    0  0  0  0  0  0  0  0  0  0  0  0
    6.1224    4.2165    2.1520 H    0  0  0  0  0  0  0  0  0  0  0  0
    1.2733    0.8630    1.9624 H    0  0  0  0  0  0  0  0  0  0  0  0
    1.2682    1.4217    0.2912 H    0  0  0  0  0  0  0  0  0  0  0  0
    2.2675    0.0361    0.7597 H    0  0  0  0  0  0  0  0  0  0  0  0
    4.5275    0.3878    1.0565 H    0  0  0  0  0  0  0  0  0  0  0  0
    6.4816    1.8434    1.5402 H    0  0  0  0  0  0  0  0  0  0  0  0
  1  2  2  0  0  0  0
  1 11  1  0  0  0  0
  1 12  1  0  0  0  0
  2  3  1  0  0  0  0
  2 13  1  0  0  0  0
  3  4  2  0  0  0  0
  4  6  1  0  0  0  0
  4  7  1  0  0  0  0
  5  3  1  0  0  0  0
  5  8  1  0  0  0  0
  6 14  1  0  0  0  0
  6 15  1  0  0  0  0
  6 16  1  0  0  0  0
  7 10  2  0  0  0  0
  7 17  1  0  0  0  0
  8 18  1  0  0  0  0
  8 19  1  0  0  0  0
  8 20  1  0  0  0  0
  9  5  2  0  0  0  0
  9 21  1  0  0  0  0
 10  9  1  0  0  0  0
 10 22  1  0  0  0  0
M  END
