  1,3-PROPYLENE OXIDE.mol	503-30-0
  NIST    06301516333D 1   1.00000  -193.10504
Copyright by the U.S. Sec. Commerce on behalf of U.S.A. All rights reserved.
 10 10  0  0  0  0  0  0  0  0999 V2000
    2.0674    2.0623    0.9026 C    0  0  0  0  0  0  0  0  0  0  0  0
    0.5256    2.0319    0.9452 C    0  0  0  0  0  0  0  0  0  0  0  0
    1.9488    0.5241    0.9061 C    0  0  0  0  0  0  0  0  0  0  0  0
    0.5046    0.5858    0.9451 O    0  0  0  0  0  0  0  0  0  0  0  0
    2.5523    2.4971    1.7801 H    0  0  0  0  0  0  0  0  0  0  0  0
    2.5029    2.4967   -0.0006 H    0  0  0  0  0  0  0  0  0  0  0  0
    0.0154    2.4477    0.0664 H    0  0  0  0  0  0  0  0  0  0  0  0
    0.0649    2.4468    1.8513 H    0  0  0  0  0  0  0  0  0  0  0  0
    2.3596    0.0155    1.7882 H    0  0  0  0  0  0  0  0  0  0  0  0
    2.3114    0.0151    0.0033 H    0  0  0  0  0  0  0  0  0  0  0  0
  1  3  1  0  0  0  0
  1  5  1  0  0  0  0
  1  6  1  0  0  0  0
  2  1  1  0  0  0  0
  2  7  1  0  0  0  0
  2  8  1  0  0  0  0
  3  4  1  0  0  0  0
  3  9  1  0  0  0  0
  3 10  1  0  0  0  0
  4  2  1  0  0  0  0
M  END
