  1,6-HEXANEDIOL.mol	629-11-8
  NIST    07221402563D 1   1.00000  -387.49165
Copyright by the U.S. Sec. Commerce on behalf of U.S.A. All rights reserved.
 22 21  0  0  0  0  0  0  0  0999 V2000
   -0.0615    9.0312   -0.0001 O    0  0  0  0  0  0  0  0  0  0  0  0
    1.1680    8.3113    0.0001 C    0  0  0  0  0  0  0  0  0  0  0  0
    2.3061    9.3234   -0.0001 C    0  0  0  0  0  0  0  0  0  0  0  0
    3.6926    8.6689    0.0001 C    0  0  0  0  0  0  0  0  0  0  0  0
    4.8407    9.6868   -0.0001 C    0  0  0  0  0  0  0  0  0  0  0  0
    6.2272    9.0323    0.0001 C    0  0  0  0  0  0  0  0  0  0  0  0
    7.3653   10.0444   -0.0001 C    0  0  0  0  0  0  0  0  0  0  0  0
    8.5947    9.3245    0.0001 O    0  0  0  0  0  0  0  0  0  0  0  0
   -0.7839    8.3854    0.0000 H    0  0  0  0  0  0  0  0  0  0  0  0
    1.2469    7.6610    0.8880 H    0  0  0  0  0  0  0  0  0  0  0  0
    1.2469    7.6606   -0.8874 H    0  0  0  0  0  0  0  0  0  0  0  0
    2.1931    9.9701   -0.8803 H    0  0  0  0  0  0  0  0  0  0  0  0
    2.1931    9.9706    0.8798 H    0  0  0  0  0  0  0  0  0  0  0  0
    3.7910    8.0149    0.8791 H    0  0  0  0  0  0  0  0  0  0  0  0
    3.7910    8.0144   -0.8785 H    0  0  0  0  0  0  0  0  0  0  0  0
    4.7423   10.3408   -0.8791 H    0  0  0  0  0  0  0  0  0  0  0  0
    4.7422   10.3413    0.8785 H    0  0  0  0  0  0  0  0  0  0  0  0
    6.3401    8.3855    0.8803 H    0  0  0  0  0  0  0  0  0  0  0  0
    6.3402    8.3851   -0.8798 H    0  0  0  0  0  0  0  0  0  0  0  0
    7.2864   10.6947   -0.8880 H    0  0  0  0  0  0  0  0  0  0  0  0
    7.2863   10.6951    0.8874 H    0  0  0  0  0  0  0  0  0  0  0  0
    9.3171    9.9703   -0.0000 H    0  0  0  0  0  0  0  0  0  0  0  0
  1  2  1  0
  2  3  1  0
  3  4  1  0
  4  5  1  0
  5  6  1  0
  6  7  1  0
  7  8  1  0
  1  9  1  0
  2 10  1  0
  2 11  1  0
  3 12  1  0
  3 13  1  0
  4 14  1  0
  4 15  1  0
  5 16  1  0
  5 17  1  0
  6 18  1  0
  6 19  1  0
  7 20  1  0
  7 21  1  0
  8 22  1  0
M  END
