  1,6-DIBROMOHEXANE.mol	629-03-8
  NIST    11121313213D 1   1.00000 -5379.29429
Copyright by the U.S. Sec. Commerce on behalf of U.S.A. All rights reserved.
 20 19  0  0  0  0  0  0  0  0999 V2000
   -0.0254   -0.1141   -0.0001 Br   0  0  0  0  0  0  0  0  0  0  0  0
    1.6594    0.9317    0.0001 C    0  0  0  0  0  0  0  0  0  0  0  0
    1.3842    2.4279   -0.0001 C    0  0  0  0  0  0  0  0  0  0  0  0
    2.6855    3.2462    0.0001 C    0  0  0  0  0  0  0  0  0  0  0  0
    2.4306    4.7601   -0.0000 C    0  0  0  0  0  0  0  0  0  0  0  0
    5.1416    8.1204    0.0002 Br   0  0  0  0  0  0  0  0  0  0  0  0
    3.4568    7.0746    0.0000 C    0  0  0  0  0  0  0  0  0  0  0  0
    3.7320    5.5784    0.0001 C    0  0  0  0  0  0  0  0  0  0  0  0
    2.1985    0.6062    0.8908 H    0  0  0  0  0  0  0  0  0  0  0  0
    2.1988    0.6061   -0.8904 H    0  0  0  0  0  0  0  0  0  0  0  0
    0.7812    2.6832   -0.8800 H    0  0  0  0  0  0  0  0  0  0  0  0
    0.7809    2.6833    0.8797 H    0  0  0  0  0  0  0  0  0  0  0  0
    3.2886    2.9799    0.8798 H    0  0  0  0  0  0  0  0  0  0  0  0
    3.2889    2.9798   -0.8794 H    0  0  0  0  0  0  0  0  0  0  0  0
    1.8276    5.0264   -0.8797 H    0  0  0  0  0  0  0  0  0  0  0  0
    1.8273    5.0265    0.8795 H    0  0  0  0  0  0  0  0  0  0  0  0
    2.9174    7.4002    0.8905 H    0  0  0  0  0  0  0  0  0  0  0  0
    2.9177    7.4001   -0.8907 H    0  0  0  0  0  0  0  0  0  0  0  0
    4.3350    5.3231    0.8801 H    0  0  0  0  0  0  0  0  0  0  0  0
    4.3353    5.3230   -0.8796 H    0  0  0  0  0  0  0  0  0  0  0  0
  1  2  1  0
  2  3  1  0
  3  4  1  0
  4  5  1  0
  5  8  1  0
  6  7  1  0
  7  8  1  0
  2  9  1  0
  2 10  1  0
  3 11  1  0
  3 12  1  0
  4 13  1  0
  4 14  1  0
  5 15  1  0
  5 16  1  0
  7 17  1  0
  7 18  1  0
  8 19  1  0
  8 20  1  0
M  END
