  1-AMINOHEPTANE.mol	111-68-2
  NIST    07101416553D 1   1.00000  -331.73860
Copyright by the U.S. Sec. Commerce on behalf of U.S.A. All rights reserved.
 25 24  0  0  0  0  0  0  0  0999 V2000
   70.0075   10.0307   -0.0104 C    0  0  0  0  0  0  0  0  0  0  0  0
   68.6913    9.2422   -0.0075 C    0  0  0  0  0  0  0  0  0  0  0  0
   68.8874    7.7211    0.0002 C    0  0  0  0  0  0  0  0  0  0  0  0
   69.8077   11.5510   -0.0134 C    0  0  0  0  0  0  0  0  0  0  0  0
   67.5717    6.9321    0.0024 C    0  0  0  0  0  0  0  0  0  0  0  0
   71.1211   12.3356   -0.0258 C    0  0  0  0  0  0  0  0  0  0  0  0
   67.7755    5.4136    0.0101 C    0  0  0  0  0  0  0  0  0  0  0  0
   70.8622   13.7804    0.0199 N    0  0  0  0  0  0  0  0  0  0  0  0
   70.6026    9.7446    0.8697 H    0  0  0  0  0  0  0  0  0  0  0  0
   70.6034    9.7371   -0.8876 H    0  0  0  0  0  0  0  0  0  0  0  0
   68.0959    9.5269   -0.8880 H    0  0  0  0  0  0  0  0  0  0  0  0
   68.0948    9.5361    0.8688 H    0  0  0  0  0  0  0  0  0  0  0  0
   69.4820    7.4354    0.8809 H    0  0  0  0  0  0  0  0  0  0  0  0
   69.4844    7.4266   -0.8761 H    0  0  0  0  0  0  0  0  0  0  0  0
   69.2101   11.8370   -0.8931 H    0  0  0  0  0  0  0  0  0  0  0  0
   69.2277   11.8604    0.8657 H    0  0  0  0  0  0  0  0  0  0  0  0
   66.9774    7.2168   -0.8777 H    0  0  0  0  0  0  0  0  0  0  0  0
   66.9753    7.2254    0.8783 H    0  0  0  0  0  0  0  0  0  0  0  0
   71.7051   12.0761    0.8672 H    0  0  0  0  0  0  0  0  0  0  0  0
   71.7246   12.0157   -0.8967 H    0  0  0  0  0  0  0  0  0  0  0  0
   66.8175    4.8811    0.0113 H    0  0  0  0  0  0  0  0  0  0  0  0
   68.3357    5.0930    0.8972 H    0  0  0  0  0  0  0  0  0  0  0  0
   68.3384    5.0844   -0.8721 H    0  0  0  0  0  0  0  0  0  0  0  0
   71.7461   14.2874    0.0407 H    0  0  0  0  0  0  0  0  0  0  0  0
   70.3984   14.0674   -0.8421 H    0  0  0  0  0  0  0  0  0  0  0  0
  1  2  1  0
  1  4  1  0
  2  3  1  0
  3  5  1  0
  4  6  1  0
  5  7  1  0
  6  8  1  0
  1  9  1  0
  1 10  1  0
  2 11  1  0
  2 12  1  0
  3 13  1  0
  3 14  1  0
  4 15  1  0
  4 16  1  0
  5 17  1  0
  5 18  1  0
  6 19  1  0
  6 20  1  0
  7 21  1  0
  7 22  1  0
  7 23  1  0
  8 24  1  0
  8 25  1  0
M  END
