  1-BROMOOCTANE.mol	111-83-1
  NIST    07271412593D 1   1.00000 -2886.81771
Copyright by the U.S. Sec. Commerce on behalf of U.S.A. All rights reserved.
 26 25  0  0  0  0  0  0  0  0999 V2000
   -0.0516   -0.1197    0.0001 C    0  0  0  0  0  0  0  0  0  0  0  0
    1.2479    0.6916   -0.0001 C    0  0  0  0  0  0  0  0  0  0  0  0
    1.0142    2.2078    0.0001 C    0  0  0  0  0  0  0  0  0  0  0  0
    2.3106    3.0280   -0.0001 C    0  0  0  0  0  0  0  0  0  0  0  0
    2.0747    4.5437    0.0001 C    0  0  0  0  0  0  0  0  0  0  0  0
    3.3730    5.3621   -0.0001 C    0  0  0  0  0  0  0  0  0  0  0  0
    3.1222    6.8792    0.0001 C    0  0  0  0  0  0  0  0  0  0  0  0
    4.4251    7.6637   -0.0001 C    0  0  0  0  0  0  0  0  0  0  0  0
    4.1012    9.6217    0.0002 Br   0  0  0  0  0  0  0  0  0  0  0  0
    0.1488   -1.1972   -0.0001 H    0  0  0  0  0  0  0  0  0  0  0  0
   -0.6597    0.1057    0.8849 H    0  0  0  0  0  0  0  0  0  0  0  0
   -0.6601    0.1059   -0.8844 H    0  0  0  0  0  0  0  0  0  0  0  0
    1.8500    0.4185   -0.8784 H    0  0  0  0  0  0  0  0  0  0  0  0
    1.8504    0.4183    0.8778 H    0  0  0  0  0  0  0  0  0  0  0  0
    0.4109    2.4809    0.8788 H    0  0  0  0  0  0  0  0  0  0  0  0
    0.4105    2.4811   -0.8783 H    0  0  0  0  0  0  0  0  0  0  0  0
    2.9132    2.7545   -0.8790 H    0  0  0  0  0  0  0  0  0  0  0  0
    2.9136    2.7544    0.8784 H    0  0  0  0  0  0  0  0  0  0  0  0
    1.4734    4.8188    0.8789 H    0  0  0  0  0  0  0  0  0  0  0  0
    1.4730    4.8189   -0.8784 H    0  0  0  0  0  0  0  0  0  0  0  0
    3.9745    5.0899   -0.8797 H    0  0  0  0  0  0  0  0  0  0  0  0
    3.9749    5.0898    0.8792 H    0  0  0  0  0  0  0  0  0  0  0  0
    2.5307    7.1607    0.8800 H    0  0  0  0  0  0  0  0  0  0  0  0
    2.5303    7.1608   -0.8794 H    0  0  0  0  0  0  0  0  0  0  0  0
    5.0259    7.4742   -0.8907 H    0  0  0  0  0  0  0  0  0  0  0  0
    5.0264    7.4740    0.8902 H    0  0  0  0  0  0  0  0  0  0  0  0
  1  2  1  0
  2  3  1  0
  3  4  1  0
  4  5  1  0
  5  6  1  0
  6  7  1  0
  7  8  1  0
  8  9  1  0
  1 10  1  0
  1 11  1  0
  1 12  1  0
  2 13  1  0
  2 14  1  0
  3 15  1  0
  3 16  1  0
  4 17  1  0
  4 18  1  0
  5 19  1  0
  5 20  1  0
  6 21  1  0
  6 22  1  0
  7 23  1  0
  7 24  1  0
  8 25  1  0
  8 26  1  0
M  END
