  1-BROMONONANE.mol	693-58-3
  NIST    11071316233D 1   1.00000 -2926.13140
Copyright by the U.S. Sec. Commerce on behalf of U.S.A. All rights reserved.
 29 28  0  0  0  0  0  0  0  0999 V2000
    3.4583    0.5053   -0.0001 C    0  0  0  0  0  0  0  0  0  0  0  0
    4.7725   -0.2861    0.0001 C    0  0  0  0  0  0  0  0  0  0  0  0
    4.5690   -1.8073   -0.0001 C    0  0  0  0  0  0  0  0  0  0  0  0
    3.6617    2.0259    0.0001 C    0  0  0  0  0  0  0  0  0  0  0  0
    5.8954   -2.5854    0.0001 C    0  0  0  0  0  0  0  0  0  0  0  0
    2.3494    2.8205   -0.0001 C    0  0  0  0  0  0  0  0  0  0  0  0
    5.6667   -4.0888   -0.0001 C    0  0  0  0  0  0  0  0  0  0  0  0
    2.5529    4.3409    0.0001 C    0  0  0  0  0  0  0  0  0  0  0  0
    7.3833   -5.0867    0.0001 Br   0  0  0  0  0  0  0  0  0  0  0  0
    1.2378    5.1271   -0.0001 C    0  0  0  0  0  0  0  0  0  0  0  0
    2.8617    0.2188   -0.8789 H    0  0  0  0  0  0  0  0  0  0  0  0
    2.8613    0.2186    0.8784 H    0  0  0  0  0  0  0  0  0  0  0  0
    5.3694   -0.0013    0.8789 H    0  0  0  0  0  0  0  0  0  0  0  0
    5.3698   -0.0011   -0.8783 H    0  0  0  0  0  0  0  0  0  0  0  0
    3.9747   -2.0947   -0.8797 H    0  0  0  0  0  0  0  0  0  0  0  0
    3.9744   -2.0949    0.8792 H    0  0  0  0  0  0  0  0  0  0  0  0
    4.2590    2.3116    0.8788 H    0  0  0  0  0  0  0  0  0  0  0  0
    4.2594    2.3118   -0.8782 H    0  0  0  0  0  0  0  0  0  0  0  0
    6.4903   -2.3112    0.8799 H    0  0  0  0  0  0  0  0  0  0  0  0
    6.4907   -2.3110   -0.8794 H    0  0  0  0  0  0  0  0  0  0  0  0
    1.7514    2.5356   -0.8788 H    0  0  0  0  0  0  0  0  0  0  0  0
    1.7510    2.5354    0.8782 H    0  0  0  0  0  0  0  0  0  0  0  0
    5.1389   -4.4317   -0.8911 H    0  0  0  0  0  0  0  0  0  0  0  0
    5.1385   -4.4319    0.8905 H    0  0  0  0  0  0  0  0  0  0  0  0
    3.1496    4.6259    0.8784 H    0  0  0  0  0  0  0  0  0  0  0  0
    3.1500    4.6261   -0.8778 H    0  0  0  0  0  0  0  0  0  0  0  0
    1.4172    6.2083    0.0001 H    0  0  0  0  0  0  0  0  0  0  0  0
    0.6341    4.8899   -0.8849 H    0  0  0  0  0  0  0  0  0  0  0  0
    0.6337    4.8897    0.8843 H    0  0  0  0  0  0  0  0  0  0  0  0
  1  2  1  0
  1  4  1  0
  2  3  1  0
  3  5  1  0
  4  6  1  0
  5  7  1  0
  6  8  1  0
  7  9  1  0
  8 10  1  0
  1 11  1  0
  1 12  1  0
  2 13  1  0
  2 14  1  0
  3 15  1  0
  3 16  1  0
  4 17  1  0
  4 18  1  0
  5 19  1  0
  5 20  1  0
  6 21  1  0
  6 22  1  0
  7 23  1  0
  7 24  1  0
  8 25  1  0
  8 26  1  0
 10 27  1  0
 10 28  1  0
 10 29  1  0
M  END
