  1-BROMOHEPTANE.mol	629-04-9
  NIST    07231408273D 1   1.00000 -2847.50397
Copyright by the U.S. Sec. Commerce on behalf of U.S.A. All rights reserved.
 23 22  0  0  0  0  0  0  0  0999 V2000
   16.9886   10.0810   -0.0001 C    0  0  0  0  0  0  0  0  0  0  0  0
   18.2832    9.2578    0.0001 C    0  0  0  0  0  0  0  0  0  0  0  0
   17.2338   11.5931    0.0001 C    0  0  0  0  0  0  0  0  0  0  0  0
   18.0439    7.7428   -0.0001 C    0  0  0  0  0  0  0  0  0  0  0  0
   19.3400    6.9209    0.0001 C    0  0  0  0  0  0  0  0  0  0  0  0
   19.0850    5.4046   -0.0001 C    0  0  0  0  0  0  0  0  0  0  0  0
   20.3857    4.6165    0.0001 C    0  0  0  0  0  0  0  0  0  0  0  0
   20.0565    2.6594   -0.0002 Br   0  0  0  0  0  0  0  0  0  0  0  0
   16.3864    9.8080   -0.8784 H    0  0  0  0  0  0  0  0  0  0  0  0
   16.3860    9.8078    0.8778 H    0  0  0  0  0  0  0  0  0  0  0  0
   18.8862    9.5311    0.8790 H    0  0  0  0  0  0  0  0  0  0  0  0
   18.8866    9.5312   -0.8784 H    0  0  0  0  0  0  0  0  0  0  0  0
   16.2904   12.1508   -0.0001 H    0  0  0  0  0  0  0  0  0  0  0  0
   17.8034   11.9029    0.8850 H    0  0  0  0  0  0  0  0  0  0  0  0
   17.8038   11.9031   -0.8845 H    0  0  0  0  0  0  0  0  0  0  0  0
   17.4419    7.4693   -0.8790 H    0  0  0  0  0  0  0  0  0  0  0  0
   17.4415    7.4691    0.8784 H    0  0  0  0  0  0  0  0  0  0  0  0
   19.9422    7.1915    0.8797 H    0  0  0  0  0  0  0  0  0  0  0  0
   19.9426    7.1916   -0.8792 H    0  0  0  0  0  0  0  0  0  0  0  0
   18.4927    5.1247   -0.8800 H    0  0  0  0  0  0  0  0  0  0  0  0
   18.4923    5.1245    0.8794 H    0  0  0  0  0  0  0  0  0  0  0  0
   20.9870    4.8043    0.8907 H    0  0  0  0  0  0  0  0  0  0  0  0
   20.9875    4.8045   -0.8902 H    0  0  0  0  0  0  0  0  0  0  0  0
  1  2  1  0
  1  3  1  0
  2  4  1  0
  4  5  1  0
  5  6  1  0
  6  7  1  0
  7  8  1  0
  1  9  1  0
  1 10  1  0
  2 11  1  0
  2 12  1  0
  3 13  1  0
  3 14  1  0
  3 15  1  0
  4 16  1  0
  4 17  1  0
  5 18  1  0
  5 19  1  0
  6 20  1  0
  6 21  1  0
  7 22  1  0
  7 23  1  0
M  END
