  1-CHLOROOCTANE.mol	111-85-3
  NIST    07151403083D 1   1.00000  -775.30887
Copyright by the U.S. Sec. Commerce on behalf of U.S.A. All rights reserved.
 26 25  0  0  0  0  0  0  0  0999 V2000
   51.9828    0.0215   -0.0001 C    0  0  0  0  0  0  0  0  0  0  0  0
   53.3322    0.7512    0.0001 C    0  0  0  0  0  0  0  0  0  0  0  0
   54.5380   -0.1983   -0.0001 C    0  0  0  0  0  0  0  0  0  0  0  0
   50.7759    0.9684    0.0001 C    0  0  0  0  0  0  0  0  0  0  0  0
   55.8839    0.5438    0.0001 C    0  0  0  0  0  0  0  0  0  0  0  0
   49.4255    0.2403   -0.0001 C    0  0  0  0  0  0  0  0  0  0  0  0
   57.0584   -0.4251   -0.0001 C    0  0  0  0  0  0  0  0  0  0  0  0
   48.2257    1.1931    0.0001 C    0  0  0  0  0  0  0  0  0  0  0  0
   58.6583    0.4461    0.0001 Cl   0  0  0  0  0  0  0  0  0  0  0  0
   51.9269   -0.6381   -0.8789 H    0  0  0  0  0  0  0  0  0  0  0  0
   51.9269   -0.6385    0.8783 H    0  0  0  0  0  0  0  0  0  0  0  0
   53.3901    1.4100    0.8789 H    0  0  0  0  0  0  0  0  0  0  0  0
   53.3901    1.4104   -0.8783 H    0  0  0  0  0  0  0  0  0  0  0  0
   54.4817   -0.8564   -0.8796 H    0  0  0  0  0  0  0  0  0  0  0  0
   54.4816   -0.8568    0.8790 H    0  0  0  0  0  0  0  0  0  0  0  0
   50.8313    1.6283    0.8788 H    0  0  0  0  0  0  0  0  0  0  0  0
   50.8313    1.6288   -0.8782 H    0  0  0  0  0  0  0  0  0  0  0  0
   55.9527    1.1942    0.8808 H    0  0  0  0  0  0  0  0  0  0  0  0
   55.9527    1.1947   -0.8802 H    0  0  0  0  0  0  0  0  0  0  0  0
   49.3700   -0.4186   -0.8784 H    0  0  0  0  0  0  0  0  0  0  0  0
   49.3700   -0.4191    0.8778 H    0  0  0  0  0  0  0  0  0  0  0  0
   57.0601   -1.0610   -0.8884 H    0  0  0  0  0  0  0  0  0  0  0  0
   57.0600   -1.0615    0.8879 H    0  0  0  0  0  0  0  0  0  0  0  0
   47.2776    0.6434   -0.0001 H    0  0  0  0  0  0  0  0  0  0  0  0
   48.2347    1.8416    0.8849 H    0  0  0  0  0  0  0  0  0  0  0  0
   48.2347    1.8421   -0.8843 H    0  0  0  0  0  0  0  0  0  0  0  0
  1  2  1  0
  1  4  1  0
  2  3  1  0
  3  5  1  0
  4  6  1  0
  5  7  1  0
  6  8  1  0
  7  9  1  0
  1 10  1  0
  1 11  1  0
  2 12  1  0
  2 13  1  0
  3 14  1  0
  3 15  1  0
  4 16  1  0
  4 17  1  0
  5 18  1  0
  5 19  1  0
  6 20  1  0
  6 21  1  0
  7 22  1  0
  7 23  1  0
  8 24  1  0
  8 25  1  0
  8 26  1  0
M  END
