  1-CHLORO-2,2-DIFLUOROETHYLENE.mol	359-10-4
  NIST    08031215073D 1   1.00000  -736.64616
Copyright by the U.S. Sec. Commerce on behalf of U.S.A. All rights reserved.
  6  5  0  0  0  0  0  0  0  0999 V2000
   32.0114   17.9940    0.0000 C    0  0  0  0  0  0  0  0  0  0  0  0
   30.6837   17.9933    0.0000 C    0  0  0  0  0  0  0  0  0  0  0  0
   29.9640   19.1042    0.0000 F    0  0  0  0  0  0  0  0  0  0  0  0
   29.9157   16.9219    0.0000 F    0  0  0  0  0  0  0  0  0  0  0  0
   32.9386   16.5287    0.0000 Cl   0  0  0  0  0  0  0  0  0  0  0  0
   32.5651   18.9218    0.0000 H    0  0  0  0  0  0  0  0  0  0  0  0
  1  2  2  0
  1  5  1  0
  2  3  1  0
  2  4  1  0
  1  6  1  0
M  END
