  1-EICOSANOL.mol	629-96-9
  NIST    06221303003D 1   1.00000  -862.68077
Copyright by the U.S. Sec. Commerce on behalf of U.S.A. All rights reserved.
 63 62  0  0  0  0  0  0  0  0999 V2000
    9.5031    0.5295    0.0002 C    0  0  0  0  0  0  0  0  0  0  0  0
    8.2101   -0.2963   -0.0001 C    0  0  0  0  0  0  0  0  0  0  0  0
    8.4493   -1.8117    0.0001 C    0  0  0  0  0  0  0  0  0  0  0  0
    9.2639    2.0449   -0.0000 C    0  0  0  0  0  0  0  0  0  0  0  0
    7.1565   -2.6377   -0.0001 C    0  0  0  0  0  0  0  0  0  0  0  0
   10.5568    2.8709    0.0002 C    0  0  0  0  0  0  0  0  0  0  0  0
    7.3964   -4.1530    0.0001 C    0  0  0  0  0  0  0  0  0  0  0  0
   10.3172    4.3862   -0.0000 C    0  0  0  0  0  0  0  0  0  0  0  0
    6.1039   -4.9796   -0.0001 C    0  0  0  0  0  0  0  0  0  0  0  0
   11.6098    5.2127    0.0002 C    0  0  0  0  0  0  0  0  0  0  0  0
    6.3448   -6.4947    0.0001 C    0  0  0  0  0  0  0  0  0  0  0  0
   11.3696    6.7279   -0.0001 C    0  0  0  0  0  0  0  0  0  0  0  0
    5.0524   -7.3212   -0.0001 C    0  0  0  0  0  0  0  0  0  0  0  0
   12.6619    7.5548    0.0002 C    0  0  0  0  0  0  0  0  0  0  0  0
    5.2945   -8.8364    0.0001 C    0  0  0  0  0  0  0  0  0  0  0  0
   12.4219    9.0699   -0.0002 C    0  0  0  0  0  0  0  0  0  0  0  0
    3.9986   -9.6560   -0.0001 C    0  0  0  0  0  0  0  0  0  0  0  0
   13.7139    9.8970    0.0001 C    0  0  0  0  0  0  0  0  0  0  0  0
    4.2416  -11.1595    0.0001 C    0  0  0  0  0  0  0  0  0  0  0  0
   13.4659   11.4089   -0.0003 C    0  0  0  0  0  0  0  0  0  0  0  0
    2.9744  -11.8111   -0.0001 O    0  0  0  0  0  0  0  0  0  0  0  0
   10.1071    0.2578    0.8788 H    0  0  0  0  0  0  0  0  0  0  0  0
   10.1075    0.2577   -0.8781 H    0  0  0  0  0  0  0  0  0  0  0  0
    7.6060   -0.0246   -0.8786 H    0  0  0  0  0  0  0  0  0  0  0  0
    7.6056   -0.0244    0.8782 H    0  0  0  0  0  0  0  0  0  0  0  0
    9.0534   -2.0833    0.8787 H    0  0  0  0  0  0  0  0  0  0  0  0
    9.0538   -2.0835   -0.8781 H    0  0  0  0  0  0  0  0  0  0  0  0
    8.6599    2.3166   -0.8786 H    0  0  0  0  0  0  0  0  0  0  0  0
    8.6594    2.3168    0.8782 H    0  0  0  0  0  0  0  0  0  0  0  0
    6.5524   -2.3663   -0.8787 H    0  0  0  0  0  0  0  0  0  0  0  0
    6.5520   -2.3661    0.8782 H    0  0  0  0  0  0  0  0  0  0  0  0
   11.1609    2.5993    0.8788 H    0  0  0  0  0  0  0  0  0  0  0  0
   11.1613    2.5991   -0.8781 H    0  0  0  0  0  0  0  0  0  0  0  0
    8.0006   -4.4244    0.8787 H    0  0  0  0  0  0  0  0  0  0  0  0
    8.0010   -4.4245   -0.8782 H    0  0  0  0  0  0  0  0  0  0  0  0
    9.7131    4.6577   -0.8786 H    0  0  0  0  0  0  0  0  0  0  0  0
    9.7127    4.6579    0.8782 H    0  0  0  0  0  0  0  0  0  0  0  0
    5.4996   -4.7085   -0.8787 H    0  0  0  0  0  0  0  0  0  0  0  0
    5.4993   -4.7084    0.8781 H    0  0  0  0  0  0  0  0  0  0  0  0
   12.2140    4.9414    0.8788 H    0  0  0  0  0  0  0  0  0  0  0  0
   12.2144    4.9412   -0.8780 H    0  0  0  0  0  0  0  0  0  0  0  0
    6.9490   -6.7657    0.8787 H    0  0  0  0  0  0  0  0  0  0  0  0
    6.9494   -6.7659   -0.8783 H    0  0  0  0  0  0  0  0  0  0  0  0
   10.7654    6.9991   -0.8787 H    0  0  0  0  0  0  0  0  0  0  0  0
   10.7649    6.9994    0.8782 H    0  0  0  0  0  0  0  0  0  0  0  0
    4.4480   -7.0516   -0.8787 H    0  0  0  0  0  0  0  0  0  0  0  0
    4.4476   -7.0514    0.8781 H    0  0  0  0  0  0  0  0  0  0  0  0
   13.2661    7.2837    0.8788 H    0  0  0  0  0  0  0  0  0  0  0  0
   13.2666    7.2834   -0.8781 H    0  0  0  0  0  0  0  0  0  0  0  0
    5.8991   -9.1051    0.8791 H    0  0  0  0  0  0  0  0  0  0  0  0
    5.8995   -9.1053   -0.8787 H    0  0  0  0  0  0  0  0  0  0  0  0
   11.8180    9.3423   -0.8788 H    0  0  0  0  0  0  0  0  0  0  0  0
   11.8175    9.3426    0.8781 H    0  0  0  0  0  0  0  0  0  0  0  0
    3.3920   -9.4042   -0.8802 H    0  0  0  0  0  0  0  0  0  0  0  0
    3.3916   -9.4040    0.8796 H    0  0  0  0  0  0  0  0  0  0  0  0
   14.3171    9.6256    0.8783 H    0  0  0  0  0  0  0  0  0  0  0  0
   14.3176    9.6253   -0.8777 H    0  0  0  0  0  0  0  0  0  0  0  0
    4.8325  -11.4419    0.8880 H    0  0  0  0  0  0  0  0  0  0  0  0
    4.8328  -11.4421   -0.8875 H    0  0  0  0  0  0  0  0  0  0  0  0
   14.4079   11.9693   -0.0001 H    0  0  0  0  0  0  0  0  0  0  0  0
   12.8954   11.7171   -0.8851 H    0  0  0  0  0  0  0  0  0  0  0  0
   12.8948   11.7174    0.8841 H    0  0  0  0  0  0  0  0  0  0  0  0
    3.1316  -12.7672   -0.0000 H    0  0  0  0  0  0  0  0  0  0  0  0
  1  2  1  0
  1  4  1  0
  2  3  1  0
  3  5  1  0
  4  6  1  0
  5  7  1  0
  6  8  1  0
  7  9  1  0
  8 10  1  0
  9 11  1  0
 10 12  1  0
 11 13  1  0
 12 14  1  0
 13 15  1  0
 14 16  1  0
 15 17  1  0
 16 18  1  0
 17 19  1  0
 18 20  1  0
 19 21  1  0
  1 22  1  0
  1 23  1  0
  2 24  1  0
  2 25  1  0
  3 26  1  0
  3 27  1  0
  4 28  1  0
  4 29  1  0
  5 30  1  0
  5 31  1  0
  6 32  1  0
  6 33  1  0
  7 34  1  0
  7 35  1  0
  8 36  1  0
  8 37  1  0
  9 38  1  0
  9 39  1  0
 10 40  1  0
 10 41  1  0
 11 42  1  0
 11 43  1  0
 12 44  1  0
 12 45  1  0
 13 46  1  0
 13 47  1  0
 14 48  1  0
 14 49  1  0
 15 50  1  0
 15 51  1  0
 16 52  1  0
 16 53  1  0
 17 54  1  0
 17 55  1  0
 18 56  1  0
 18 57  1  0
 19 58  1  0
 19 59  1  0
 20 60  1  0
 20 61  1  0
 20 62  1  0
 21 63  1  0
M  END
