  1-ETHYL-3-ETHENYLBENZENE.mol	7525-62-4
  NIST    07011510353D 1   1.00000  -388.27985
Copyright by the U.S. Sec. Commerce on behalf of U.S.A. All rights reserved.
 22 22  0  0  0  0  0  0  0  0999 V2000
    6.5193    2.6063    1.5562 C    0  0  0  0  0  0  0  0  0  0  0  0
    5.1965    2.6666    0.7711 C    0  0  0  0  0  0  0  0  0  0  0  0
    4.0024    2.9678    1.6531 C    0  0  0  0  0  0  0  0  0  0  0  0
    3.2947    1.9341    2.2767 C    0  0  0  0  0  0  0  0  0  0  0  0
    3.5993    4.2859    1.8962 C    0  0  0  0  0  0  0  0  0  0  0  0
    2.2087    2.1773    3.1331 C    0  0  0  0  0  0  0  0  0  0  0  0
    2.5203    4.5528    2.7431 C    0  0  0  0  0  0  0  0  0  0  0  0
    1.5200    1.0302    3.7477 C    0  0  0  0  0  0  0  0  0  0  0  0
    1.8302    3.5133    3.3574 C    0  0  0  0  0  0  0  0  0  0  0  0
    0.4976    1.0571    4.6119 C    0  0  0  0  0  0  0  0  0  0  0  0
    6.4839    1.8265    2.3252 H    0  0  0  0  0  0  0  0  0  0  0  0
    6.7207    3.5589    2.0591 H    0  0  0  0  0  0  0  0  0  0  0  0
    7.3612    2.3886    0.8889 H    0  0  0  0  0  0  0  0  0  0  0  0
    5.2769    3.4322   -0.0110 H    0  0  0  0  0  0  0  0  0  0  0  0
    5.0404    1.7104    0.2556 H    0  0  0  0  0  0  0  0  0  0  0  0
    3.5933    0.9032    2.0909 H    0  0  0  0  0  0  0  0  0  0  0  0
    4.1281    5.1071    1.4172 H    0  0  0  0  0  0  0  0  0  0  0  0
    2.2138    5.5809    2.9191 H    0  0  0  0  0  0  0  0  0  0  0  0
    1.9111    0.0574    3.4489 H    0  0  0  0  0  0  0  0  0  0  0  0
    0.9900    3.7389    4.0075 H    0  0  0  0  0  0  0  0  0  0  0  0
    0.0485    1.9806    4.9673 H    0  0  0  0  0  0  0  0  0  0  0  0
    0.0709    0.1370    4.9994 H    0  0  0  0  0  0  0  0  0  0  0  0
  1  2  1  0  0  0  0
  1 11  1  0  0  0  0
  1 12  1  0  0  0  0
  1 13  1  0  0  0  0
  2  3  1  0  0  0  0
  2 14  1  0  0  0  0
  2 15  1  0  0  0  0
  3  4  2  0  0  0  0
  4  6  1  0  0  0  0
  4 16  1  0  0  0  0
  5  3  1  0  0  0  0
  5 17  1  0  0  0  0
  6  8  1  0  0  0  0
  6  9  2  0  0  0  0
  7  5  2  0  0  0  0
  7 18  1  0  0  0  0
  8 10  2  0  0  0  0
  8 19  1  0  0  0  0
  9  7  1  0  0  0  0
  9 20  1  0  0  0  0
 10 21  1  0  0  0  0
 10 22  1  0  0  0  0
M  END
