  1-FLUORONAPHTHALENE.mol	321-38-0
  NIST    08031215063D 1   1.00000  -485.12653
Copyright by the U.S. Sec. Commerce on behalf of U.S.A. All rights reserved.
 18 19  0  0  0  0  0  0  0  0999 V2000
    5.7993    1.7524   -0.5551 C    0  0  0  0  0  0  0  0  0  0  0  0
    5.8380    2.3486   -1.7691 F    0  0  0  0  0  0  0  0  0  0  0  0
    4.6049    1.0814   -0.1917 C    0  0  0  0  0  0  0  0  0  0  0  0
    6.8971    1.8185    0.2628 C    0  0  0  0  0  0  0  0  0  0  0  0
    4.5670    0.4511    1.0946 C    0  0  0  0  0  0  0  0  0  0  0  0
    3.4732    1.0182   -1.0453 C    0  0  0  0  0  0  0  0  0  0  0  0
    6.8426    1.1901    1.5309 C    0  0  0  0  0  0  0  0  0  0  0  0
    5.7092    0.5236    1.9383 C    0  0  0  0  0  0  0  0  0  0  0  0
    3.3768   -0.2258    1.4739 C    0  0  0  0  0  0  0  0  0  0  0  0
    2.3386    0.3521   -0.6400 C    0  0  0  0  0  0  0  0  0  0  0  0
    2.2903   -0.2747    0.6295 C    0  0  0  0  0  0  0  0  0  0  0  0
    7.7836    2.3471   -0.0713 H    0  0  0  0  0  0  0  0  0  0  0  0
    3.5202    1.5015   -2.0154 H    0  0  0  0  0  0  0  0  0  0  0  0
    7.7110    1.2408    2.1814 H    0  0  0  0  0  0  0  0  0  0  0  0
    5.6729    0.0432    2.9125 H    0  0  0  0  0  0  0  0  0  0  0  0
    3.3393   -0.7069    2.4483 H    0  0  0  0  0  0  0  0  0  0  0  0
    1.4734    0.3051   -1.2955 H    0  0  0  0  0  0  0  0  0  0  0  0
    1.3879   -0.7968    0.9356 H    0  0  0  0  0  0  0  0  0  0  0  0
  1  2  1  0
 10 11  2  0
 11  9  1  0
  9  5  2  0
  5  8  1  0
  8  7  2  0
  7  4  1  0
  4  1  2  0
  1  3  1  0
  5  3  1  0
  3  6  2  0
 10  6  1  0
  4 12  1  0
  6 13  1  0
  7 14  1  0
  8 15  1  0
  9 16  1  0
 10 17  1  0
 11 18  1  0
M  END
