  1-HEXADECYNE.mol	629-74-3
  NIST    07021507593D 1   1.00000  -627.73191
Copyright by the U.S. Sec. Commerce on behalf of U.S.A. All rights reserved.
 46 45  0  0  0  0  0  0  0  0999 V2000
   10.9820    1.3631    1.7804 C    0  0  0  0  0  0  0  0  0  0  0  0
    9.6872    1.1508    0.9854 C    0  0  0  0  0  0  0  0  0  0  0  0
    8.4146    1.3874    1.8088 C    0  0  0  0  0  0  0  0  0  0  0  0
   12.2533    1.1226    0.9561 C    0  0  0  0  0  0  0  0  0  0  0  0
    7.1208    1.1651    1.0150 C    0  0  0  0  0  0  0  0  0  0  0  0
   13.5485    1.3203    1.7541 C    0  0  0  0  0  0  0  0  0  0  0  0
    5.8469    1.3972    1.8378 C    0  0  0  0  0  0  0  0  0  0  0  0
   14.8183    1.0776    0.9281 C    0  0  0  0  0  0  0  0  0  0  0  0
    4.5541    1.1702    1.0438 C    0  0  0  0  0  0  0  0  0  0  0  0
   16.1098    1.2580    1.7336 C    0  0  0  0  0  0  0  0  0  0  0  0
    3.2793    1.3980    1.8659 C    0  0  0  0  0  0  0  0  0  0  0  0
   17.3760    1.0113    0.8860 C    0  0  0  0  0  0  0  0  0  0  0  0
    1.9869    1.1721    1.0709 C    0  0  0  0  0  0  0  0  0  0  0  0
   18.6178    1.1631    1.6457 C    0  0  0  0  0  0  0  0  0  0  0  0
    0.7184    1.3972    1.8999 C    0  0  0  0  0  0  0  0  0  0  0  0
   19.6318    1.2914    2.2891 C    0  0  0  0  0  0  0  0  0  0  0  0
   10.9981    2.3869    2.1829 H    0  0  0  0  0  0  0  0  0  0  0  0
   10.9846    0.6945    2.6542 H    0  0  0  0  0  0  0  0  0  0  0  0
    9.6837    1.8195    0.1116 H    0  0  0  0  0  0  0  0  0  0  0  0
    9.6732    0.1271    0.5826 H    0  0  0  0  0  0  0  0  0  0  0  0
    8.4209    0.7223    2.6855 H    0  0  0  0  0  0  0  0  0  0  0  0
    8.4249    2.4128    2.2073 H    0  0  0  0  0  0  0  0  0  0  0  0
   12.2324    0.1016    0.5467 H    0  0  0  0  0  0  0  0  0  0  0  0
   12.2554    1.7970    0.0867 H    0  0  0  0  0  0  0  0  0  0  0  0
    7.1124    0.1400    0.6153 H    0  0  0  0  0  0  0  0  0  0  0  0
    7.1134    1.8309    0.1390 H    0  0  0  0  0  0  0  0  0  0  0  0
   13.5464    0.6448    2.6223 H    0  0  0  0  0  0  0  0  0  0  0  0
   13.5717    2.3407    2.1643 H    0  0  0  0  0  0  0  0  0  0  0  0
    5.8534    2.4229    2.2358 H    0  0  0  0  0  0  0  0  0  0  0  0
    5.8554    0.7327    2.7148 H    0  0  0  0  0  0  0  0  0  0  0  0
   14.8273    1.7611    0.0658 H    0  0  0  0  0  0  0  0  0  0  0  0
   14.7900    0.0607    0.5091 H    0  0  0  0  0  0  0  0  0  0  0  0
    4.5447    1.8362    0.1678 H    0  0  0  0  0  0  0  0  0  0  0  0
    4.5493    0.1451    0.6440 H    0  0  0  0  0  0  0  0  0  0  0  0
   16.1531    2.2720    2.1516 H    0  0  0  0  0  0  0  0  0  0  0  0
   16.1160    0.5706    2.5895 H    0  0  0  0  0  0  0  0  0  0  0  0
    3.2830    2.4227    2.2669 H    0  0  0  0  0  0  0  0  0  0  0  0
    3.2869    0.7311    2.7412 H    0  0  0  0  0  0  0  0  0  0  0  0
   17.3342    0.0009    0.4549 H    0  0  0  0  0  0  0  0  0  0  0  0
   17.3841    1.7038    0.0321 H    0  0  0  0  0  0  0  0  0  0  0  0
    1.9841    0.1491    0.6681 H    0  0  0  0  0  0  0  0  0  0  0  0
    1.9772    1.8411    0.1984 H    0  0  0  0  0  0  0  0  0  0  0  0
    0.6771    2.4213    2.2914 H    0  0  0  0  0  0  0  0  0  0  0  0
    0.6786    0.7147    2.7579 H    0  0  0  0  0  0  0  0  0  0  0  0
   -0.1856    1.2329    1.3023 H    0  0  0  0  0  0  0  0  0  0  0  0
   20.5294    1.4033    2.8535 H    0  0  0  0  0  0  0  0  0  0  0  0
  1  2  1  0  0  0  0
  1  4  1  0  0  0  0
  1 17  1  0  0  0  0
  1 18  1  0  0  0  0
  2  3  1  0  0  0  0
  2 19  1  0  0  0  0
  2 20  1  0  0  0  0
  3  5  1  0  0  0  0
  3 21  1  0  0  0  0
  3 22  1  0  0  0  0
  4  6  1  0  0  0  0
  4 23  1  0  0  0  0
  4 24  1  0  0  0  0
  5  7  1  0  0  0  0
  5 25  1  0  0  0  0
  5 26  1  0  0  0  0
  6  8  1  0  0  0  0
  6 27  1  0  0  0  0
  6 28  1  0  0  0  0
  7  9  1  0  0  0  0
  7 29  1  0  0  0  0
  7 30  1  0  0  0  0
  8 10  1  0  0  0  0
  8 31  1  0  0  0  0
  8 32  1  0  0  0  0
  9 11  1  0  0  0  0
  9 33  1  0  0  0  0
  9 34  1  0  0  0  0
 10 12  1  0  0  0  0
 10 35  1  0  0  0  0
 10 36  1  0  0  0  0
 11 13  1  0  0  0  0
 11 37  1  0  0  0  0
 11 38  1  0  0  0  0
 12 14  1  0  0  0  0
 12 39  1  0  0  0  0
 12 40  1  0  0  0  0
 13 15  1  0  0  0  0
 13 41  1  0  0  0  0
 13 42  1  0  0  0  0
 14 16  3  0  0  0  0
 15 43  1  0  0  0  0
 15 44  1  0  0  0  0
 15 45  1  0  0  0  0
 16 46  1  0  0  0  0
M  END
