  1-HEPTADECENE.mol	6765-39-5
  NIST    07061509213D 1   1.00000  -668.29147
Copyright by the U.S. Sec. Commerce on behalf of U.S.A. All rights reserved.
 51 50  0  0  0  0  0  0  0  0999 V2000
    6.3020    0.2918    5.6026 C    0  0  0  0  0  0  0  0  0  0  0  0
    5.1318    0.9108    6.3899 C    0  0  0  0  0  0  0  0  0  0  0  0
    4.2563    1.9126    5.6172 C    0  0  0  0  0  0  0  0  0  0  0  0
    7.3652    1.2837    5.0933 C    0  0  0  0  0  0  0  0  0  0  0  0
    3.5093    1.3158    4.4155 C    0  0  0  0  0  0  0  0  0  0  0  0
    8.0787    2.1226    6.1700 C    0  0  0  0  0  0  0  0  0  0  0  0
    2.5138    2.2930    3.7756 C    0  0  0  0  0  0  0  0  0  0  0  0
    8.8752    1.2994    7.1938 C    0  0  0  0  0  0  0  0  0  0  0  0
    1.7859    1.7048    2.5582 C    0  0  0  0  0  0  0  0  0  0  0  0
    9.5826    2.1358    8.2744 C    0  0  0  0  0  0  0  0  0  0  0  0
    0.6765    2.5955    1.9763 C    0  0  0  0  0  0  0  0  0  0  0  0
   10.7260    3.0239    7.7641 C    0  0  0  0  0  0  0  0  0  0  0  0
    1.1702    3.9298    1.3813 C    0  0  0  0  0  0  0  0  0  0  0  0
   11.4431    3.7898    8.8840 C    0  0  0  0  0  0  0  0  0  0  0  0
    0.0680    4.7051    0.7117 C    0  0  0  0  0  0  0  0  0  0  0  0
   12.5853    4.6759    8.3767 C    0  0  0  0  0  0  0  0  0  0  0  0
   -0.3526    5.9182    1.0719 C    0  0  0  0  0  0  0  0  0  0  0  0
    6.7832   -0.4628    6.2386 H    0  0  0  0  0  0  0  0  0  0  0  0
    5.9079   -0.2622    4.7401 H    0  0  0  0  0  0  0  0  0  0  0  0
    5.5213    1.4055    7.2899 H    0  0  0  0  0  0  0  0  0  0  0  0
    4.4914    0.0942    6.7531 H    0  0  0  0  0  0  0  0  0  0  0  0
    3.5186    2.3336    6.3154 H    0  0  0  0  0  0  0  0  0  0  0  0
    4.8660    2.7627    5.2796 H    0  0  0  0  0  0  0  0  0  0  0  0
    6.9057    1.9677    4.3667 H    0  0  0  0  0  0  0  0  0  0  0  0
    8.1209    0.7173    4.5301 H    0  0  0  0  0  0  0  0  0  0  0  0
    4.2276    0.9837    3.6529 H    0  0  0  0  0  0  0  0  0  0  0  0
    2.9698    0.4121    4.7376 H    0  0  0  0  0  0  0  0  0  0  0  0
    7.3473    2.7466    6.7034 H    0  0  0  0  0  0  0  0  0  0  0  0
    8.7530    2.8237    5.6610 H    0  0  0  0  0  0  0  0  0  0  0  0
    1.7707    2.5956    4.5289 H    0  0  0  0  0  0  0  0  0  0  0  0
    3.0458    3.2105    3.4876 H    0  0  0  0  0  0  0  0  0  0  0  0
    9.6197    0.6855    6.6640 H    0  0  0  0  0  0  0  0  0  0  0  0
    8.2009    0.5919    7.6939 H    0  0  0  0  0  0  0  0  0  0  0  0
    2.5201    1.4774    1.7707 H    0  0  0  0  0  0  0  0  0  0  0  0
    1.3420    0.7407    2.8450 H    0  0  0  0  0  0  0  0  0  0  0  0
    9.9833    1.4547    9.0390 H    0  0  0  0  0  0  0  0  0  0  0  0
    8.8391    2.7629    8.7892 H    0  0  0  0  0  0  0  0  0  0  0  0
   -0.0716    2.8082    2.7527 H    0  0  0  0  0  0  0  0  0  0  0  0
    0.1488    2.0350    1.1916 H    0  0  0  0  0  0  0  0  0  0  0  0
   10.3443    3.7460    7.0290 H    0  0  0  0  0  0  0  0  0  0  0  0
   11.4566    2.4001    7.2269 H    0  0  0  0  0  0  0  0  0  0  0  0
    1.9619    3.7119    0.6470 H    0  0  0  0  0  0  0  0  0  0  0  0
    1.6284    4.5490    2.1620 H    0  0  0  0  0  0  0  0  0  0  0  0
   11.8347    3.0730    9.6199 H    0  0  0  0  0  0  0  0  0  0  0  0
   10.7121    4.4089    9.4237 H    0  0  0  0  0  0  0  0  0  0  0  0
   -0.4221    4.2034   -0.1255 H    0  0  0  0  0  0  0  0  0  0  0  0
   12.2189    5.4266    7.6654 H    0  0  0  0  0  0  0  0  0  0  0  0
   13.0753    5.2089    9.1997 H    0  0  0  0  0  0  0  0  0  0  0  0
   13.3505    4.0809    7.8630 H    0  0  0  0  0  0  0  0  0  0  0  0
   -1.1633    6.4225    0.5525 H    0  0  0  0  0  0  0  0  0  0  0  0
    0.1011    6.4571    1.9018 H    0  0  0  0  0  0  0  0  0  0  0  0
  1  2  1  0  0  0  0
  1  4  1  0  0  0  0
  1 18  1  0  0  0  0
  1 19  1  0  0  0  0
  2  3  1  0  0  0  0
  2 20  1  0  0  0  0
  2 21  1  0  0  0  0
  3  5  1  0  0  0  0
  3 22  1  0  0  0  0
  3 23  1  0  0  0  0
  4  6  1  0  0  0  0
  4 24  1  0  0  0  0
  4 25  1  0  0  0  0
  5  7  1  0  0  0  0
  5 26  1  0  0  0  0
  5 27  1  0  0  0  0
  6  8  1  0  0  0  0
  6 28  1  0  0  0  0
  6 29  1  0  0  0  0
  7  9  1  0  0  0  0
  7 30  1  0  0  0  0
  7 31  1  0  0  0  0
  8 10  1  0  0  0  0
  8 32  1  0  0  0  0
  8 33  1  0  0  0  0
  9 11  1  0  0  0  0
  9 34  1  0  0  0  0
  9 35  1  0  0  0  0
 10 12  1  0  0  0  0
 10 36  1  0  0  0  0
 10 37  1  0  0  0  0
 11 13  1  0  0  0  0
 11 38  1  0  0  0  0
 11 39  1  0  0  0  0
 12 14  1  0  0  0  0
 12 40  1  0  0  0  0
 12 41  1  0  0  0  0
 13 15  1  0  0  0  0
 13 42  1  0  0  0  0
 13 43  1  0  0  0  0
 14 16  1  0  0  0  0
 14 44  1  0  0  0  0
 14 45  1  0  0  0  0
 15 17  2  0  0  0  0
 15 46  1  0  0  0  0
 16 47  1  0  0  0  0
 16 48  1  0  0  0  0
 16 49  1  0  0  0  0
 17 50  1  0  0  0  0
 17 51  1  0  0  0  0
M  END
