
 OpenBabel11251910383D

 22 21  0  0  0  0  0  0  0  0999 V2000
    3.6317    1.5402    3.1156 C   0  0  0  0  0  0  0  0  0  0  0  0
    2.6432    2.6756    2.8237 C   0  0  0  0  0  0  0  0  0  0  0  0
    2.1098    2.5858    1.3890 C   0  0  0  0  0  0  0  0  0  0  0  0
    4.1642    1.6302    4.5486 C   0  0  0  0  0  0  0  0  0  0  0  0
    1.1222    3.7215    1.0977 C   0  0  0  0  0  0  0  0  0  0  0  0
    5.1361    0.5205    4.8161 C   0  0  0  0  0  0  0  0  0  0  0  0
    0.5894    3.6359   -0.3296 C   0  0  0  0  0  0  0  0  0  0  0  0
    4.9209   -0.2881    5.7048 O   0  0  0  0  0  0  0  0  0  0  0  0
    4.4835    1.6033    2.4023 H   0  0  0  0  0  0  0  0  0  0  0  0
    3.1198    0.5620    2.9762 H   0  0  0  0  0  0  0  0  0  0  0  0
    3.1556    3.6530    2.9640 H   0  0  0  0  0  0  0  0  0  0  0  0
    1.7912    2.6127    3.5363 H   0  0  0  0  0  0  0  0  0  0  0  0
    1.5970    1.6086    1.2484 H   0  0  0  0  0  0  0  0  0  0  0  0
    2.9616    2.6487    0.6761 H   0  0  0  0  0  0  0  0  0  0  0  0
    3.3153    1.5691    5.2653 H   0  0  0  0  0  0  0  0  0  0  0  0
    4.6854    2.6003    4.6969 H   0  0  0  0  0  0  0  0  0  0  0  0
    0.2657    3.6626    1.8043 H   0  0  0  0  0  0  0  0  0  0  0  0
    1.6294    4.7018    1.2328 H   0  0  0  0  0  0  0  0  0  0  0  0
    6.0386    0.4350    4.2191 H   0  0  0  0  0  0  0  0  0  0  0  0
    0.0574    2.6733   -0.4861 H   0  0  0  0  0  0  0  0  0  0  0  0
   -0.1218    4.4689   -0.5122 H   0  0  0  0  0  0  0  0  0  0  0  0
    1.4239    3.7145   -1.0587 H   0  0  0  0  0  0  0  0  0  0  0  0
  1  2  1  0  0  0  0
  1  4  1  0  0  0  0
  1  9  1  0  0  0  0
  1 10  1  0  0  0  0
  2  3  1  0  0  0  0
  2 11  1  0  0  0  0
  2 12  1  0  0  0  0
  3  5  1  0  0  0  0
  3 13  1  0  0  0  0
  3 14  1  0  0  0  0
  4  6  1  0  0  0  0
  4 15  1  0  0  0  0
  4 16  1  0  0  0  0
  5  7  1  0  0  0  0
  5 17  1  0  0  0  0
  5 18  1  0  0  0  0
  6  8  2  0  0  0  0
  6 19  1  0  0  0  0
  7 20  1  0  0  0  0
  7 21  1  0  0  0  0
  7 22  1  0  0  0  0
M  END
