  1-IODOHEXANE.mol	638-45-9
  NIST    06201314153D 1   1.00000  -247.89986
Copyright by the U.S. Sec. Commerce on behalf of U.S.A. All rights reserved.
 20 19  0  0  0  0  0  0  0  0999 V2000
   -0.0399   -0.0832    0.0001 C    0  0  0  0  0  0  0  0  0  0  0  0
    1.3123    0.6370   -0.0001 C    0  0  0  0  0  0  0  0  0  0  0  0
    1.1804    2.1653    0.0001 C    0  0  0  0  0  0  0  0  0  0  0  0
    2.5321    2.8931   -0.0001 C    0  0  0  0  0  0  0  0  0  0  0  0
    2.3820    4.4254    0.0001 C    0  0  0  0  0  0  0  0  0  0  0  0
    3.7396    5.1063   -0.0001 C    0  0  0  0  0  0  0  0  0  0  0  0
    3.5757    7.3263    0.0002 I    0  0  0  0  0  0  0  0  0  0  0  0
    0.0874   -1.1716   -0.0001 H    0  0  0  0  0  0  0  0  0  0  0  0
   -0.6310    0.1829    0.8850 H    0  0  0  0  0  0  0  0  0  0  0  0
   -0.6314    0.1832   -0.8845 H    0  0  0  0  0  0  0  0  0  0  0  0
    1.8942    0.3239   -0.8786 H    0  0  0  0  0  0  0  0  0  0  0  0
    1.8946    0.3236    0.8780 H    0  0  0  0  0  0  0  0  0  0  0  0
    0.5989    2.4800    0.8791 H    0  0  0  0  0  0  0  0  0  0  0  0
    0.5986    2.4802   -0.8785 H    0  0  0  0  0  0  0  0  0  0  0  0
    3.1134    2.5815   -0.8799 H    0  0  0  0  0  0  0  0  0  0  0  0
    3.1138    2.5813    0.8794 H    0  0  0  0  0  0  0  0  0  0  0  0
    1.8093    4.7403    0.8806 H    0  0  0  0  0  0  0  0  0  0  0  0
    1.8089    4.7405   -0.8800 H    0  0  0  0  0  0  0  0  0  0  0  0
    4.3267    4.8872   -0.8921 H    0  0  0  0  0  0  0  0  0  0  0  0
    4.3271    4.8870    0.8915 H    0  0  0  0  0  0  0  0  0  0  0  0
  1  2  1  0
  2  3  1  0
  3  4  1  0
  4  5  1  0
  5  6  1  0
  6  7  1  0
  1  8  1  0
  1  9  1  0
  1 10  1  0
  2 11  1  0
  2 12  1  0
  3 13  1  0
  3 14  1  0
  4 15  1  0
  4 16  1  0
  5 17  1  0
  5 18  1  0
  6 19  1  0
  6 20  1  0
M  END
