  1-IODOPENTANE.mol	628-17-1
  NIST    06051417333D 1   1.00000  -208.58615
Copyright by the U.S. Sec. Commerce on behalf of U.S.A. All rights reserved.
 17 16  0  0  0  0  0  0  0  0999 V2000
   59.0501   33.9976   -0.0001 C    0  0  0  0  0  0  0  0  0  0  0  0
   58.2840   32.6670    0.0001 C    0  0  0  0  0  0  0  0  0  0  0  0
   60.5708   33.8141    0.0001 C    0  0  0  0  0  0  0  0  0  0  0  0
   56.7568   32.8601   -0.0001 C    0  0  0  0  0  0  0  0  0  0  0  0
   56.0379   31.5221    0.0001 C    0  0  0  0  0  0  0  0  0  0  0  0
   53.8235   31.7470   -0.0001 I    0  0  0  0  0  0  0  0  0  0  0  0
   58.7510   34.5861   -0.8787 H    0  0  0  0  0  0  0  0  0  0  0  0
   58.7508   34.5865    0.8781 H    0  0  0  0  0  0  0  0  0  0  0  0
   58.5800   32.0774    0.8799 H    0  0  0  0  0  0  0  0  0  0  0  0
   58.5801   32.0770   -0.8794 H    0  0  0  0  0  0  0  0  0  0  0  0
   61.0870   34.7806   -0.0001 H    0  0  0  0  0  0  0  0  0  0  0  0
   60.9040   33.2587    0.8853 H    0  0  0  0  0  0  0  0  0  0  0  0
   60.9042   33.2582   -0.8848 H    0  0  0  0  0  0  0  0  0  0  0  0
   56.4583   33.4417   -0.8806 H    0  0  0  0  0  0  0  0  0  0  0  0
   56.4581   33.4421    0.8800 H    0  0  0  0  0  0  0  0  0  0  0  0
   56.2409   30.9292    0.8920 H    0  0  0  0  0  0  0  0  0  0  0  0
   56.2411   30.9288   -0.8915 H    0  0  0  0  0  0  0  0  0  0  0  0
  1  2  1  0
  1  3  1  0
  2  4  1  0
  4  5  1  0
  5  6  1  0
  1  7  1  0
  1  8  1  0
  2  9  1  0
  2 10  1  0
  3 11  1  0
  3 12  1  0
  3 13  1  0
  4 14  1  0
  4 15  1  0
  5 16  1  0
  5 17  1  0
M  END
