  1-METHYL-1-ETHYLCYCLOPROPANE.mol	53778-43-1
  NIST    06211415183D 1   1.00000  -235.84153
Copyright by the U.S. Sec. Commerce on behalf of U.S.A. All rights reserved.
 18 18  0  0  0  0  0  0  0  0999 V2000
    2.6354   -1.3199    1.7068 C    0  0  0  0  0  0  0  0  0  0  0  0
    1.7510   -0.2717    1.0185 C    0  0  0  0  0  0  0  0  0  0  0  0
    1.1798    0.7869    1.9575 C    0  0  0  0  0  0  0  0  0  0  0  0
    0.2163    0.2745    3.0158 C    0  0  0  0  0  0  0  0  0  0  0  0
    2.0722    1.9539    2.3205 C    0  0  0  0  0  0  0  0  0  0  0  0
    0.9076    2.1566    1.3766 C    0  0  0  0  0  0  0  0  0  0  0  0
    3.0513   -2.0218    0.9749 H    0  0  0  0  0  0  0  0  0  0  0  0
    3.4735   -0.8450    2.2308 H    0  0  0  0  0  0  0  0  0  0  0  0
    2.0742   -1.9074    2.4420 H    0  0  0  0  0  0  0  0  0  0  0  0
    0.9220   -0.7764    0.5006 H    0  0  0  0  0  0  0  0  0  0  0  0
    2.3370    0.2293    0.2361 H    0  0  0  0  0  0  0  0  0  0  0  0
    0.7002   -0.4337    3.6993 H    0  0  0  0  0  0  0  0  0  0  0  0
   -0.1780    1.0980    3.6221 H    0  0  0  0  0  0  0  0  0  0  0  0
   -0.6388   -0.2376    2.5548 H    0  0  0  0  0  0  0  0  0  0  0  0
    1.9990    2.3697    3.3226 H    0  0  0  0  0  0  0  0  0  0  0  0
    3.0767    1.9832    1.9045 H    0  0  0  0  0  0  0  0  0  0  0  0
    1.1250    2.3240    0.3243 H    0  0  0  0  0  0  0  0  0  0  0  0
    0.0434    2.7073    1.7408 H    0  0  0  0  0  0  0  0  0  0  0  0
  1  2  1  0
  2  3  1  0
  3  4  1  0
  3  5  1  0
  5  6  1  0
  3  6  1  0
  1  7  1  0
  1  8  1  0
  1  9  1  0
  2 10  1  0
  2 11  1  0
  4 12  1  0
  4 13  1  0
  4 14  1  0
  5 15  1  0
  5 16  1  0
  6 17  1  0
  6 18  1  0
M  END
