  1-METHYL-2-PROPYLBENZENE.mol	1074-17-5
  NIST    07011513273D 1   1.00000  -389.51015
Copyright by the U.S. Sec. Commerce on behalf of U.S.A. All rights reserved.
 24 24  0  0  0  0  0  0  0  0999 V2000
    1.7460    4.4020    2.1294 C    0  0  0  0  0  0  0  0  0  0  0  0
    0.8078    5.5941    1.9182 C    0  0  0  0  0  0  0  0  0  0  0  0
    2.9255    4.3851    1.1344 C    0  0  0  0  0  0  0  0  0  0  0  0
    3.8578    3.2059    1.3298 C    0  0  0  0  0  0  0  0  0  0  0  0
    3.6038    2.0138    0.6392 C    0  0  0  0  0  0  0  0  0  0  0  0
    4.4037    0.8840    0.8082 C    0  0  0  0  0  0  0  0  0  0  0  0
    5.4878    0.9378    1.6824 C    0  0  0  0  0  0  0  0  0  0  0  0
    5.7555    2.1203    2.3720 C    0  0  0  0  0  0  0  0  0  0  0  0
    4.9582    3.2610    2.2129 C    0  0  0  0  0  0  0  0  0  0  0  0
    5.3028    4.5224    2.9749 C    0  0  0  0  0  0  0  0  0  0  0  0
    1.1852    3.4635    2.0285 H    0  0  0  0  0  0  0  0  0  0  0  0
    2.1340    4.4130    3.1565 H    0  0  0  0  0  0  0  0  0  0  0  0
    1.3390    6.5456    2.0446 H    0  0  0  0  0  0  0  0  0  0  0  0
   -0.0230    5.5790    2.6327 H    0  0  0  0  0  0  0  0  0  0  0  0
    0.3791    5.5874    0.9083 H    0  0  0  0  0  0  0  0  0  0  0  0
    3.4759    5.3306    1.2192 H    0  0  0  0  0  0  0  0  0  0  0  0
    2.5196    4.3583    0.1144 H    0  0  0  0  0  0  0  0  0  0  0  0
    2.7603    1.9756   -0.0477 H    0  0  0  0  0  0  0  0  0  0  0  0
    4.1832   -0.0271    0.2581 H    0  0  0  0  0  0  0  0  0  0  0  0
    6.1246    0.0687    1.8256 H    0  0  0  0  0  0  0  0  0  0  0  0
    6.6050    2.1643    3.0503 H    0  0  0  0  0  0  0  0  0  0  0  0
    6.1659    4.3586    3.6275 H    0  0  0  0  0  0  0  0  0  0  0  0
    4.4731    4.8664    3.6043 H    0  0  0  0  0  0  0  0  0  0  0  0
    5.5537    5.3507    2.2995 H    0  0  0  0  0  0  0  0  0  0  0  0
  1  2  1  0  0  0  0
  1  3  1  0  0  0  0
  1 11  1  0  0  0  0
  1 12  1  0  0  0  0
  2 13  1  0  0  0  0
  2 14  1  0  0  0  0
  2 15  1  0  0  0  0
  3  4  1  0  0  0  0
  3 16  1  0  0  0  0
  3 17  1  0  0  0  0
  4  9  1  0  0  0  0
  5  4  2  0  0  0  0
  5 18  1  0  0  0  0
  6  5  1  0  0  0  0
  6 19  1  0  0  0  0
  7  6  2  0  0  0  0
  7 20  1  0  0  0  0
  8  7  1  0  0  0  0
  8 21  1  0  0  0  0
  9  8  2  0  0  0  0
  9 10  1  0  0  0  0
 10 22  1  0  0  0  0
 10 23  1  0  0  0  0
 10 24  1  0  0  0  0
M  END
