  1-METHYL-4-PROPYLBENZENE.mol	1074-55-1
  NIST    06301523483D 1   1.00000  -389.51214
Copyright by the U.S. Sec. Commerce on behalf of U.S.A. All rights reserved.
 24 24  0  0  0  0  0  0  0  0999 V2000
    1.8901    4.7880    1.5152 C    0  0  0  0  0  0  0  0  0  0  0  0
    0.8795    5.9001    1.8108 C    0  0  0  0  0  0  0  0  0  0  0  0
    3.1742    4.9044    2.3612 C    0  0  0  0  0  0  0  0  0  0  0  0
    4.1792    3.8101    2.0727 C    0  0  0  0  0  0  0  0  0  0  0  0
    5.1302    3.9508    1.0537 C    0  0  0  0  0  0  0  0  0  0  0  0
    6.0338    2.9292    0.7637 C    0  0  0  0  0  0  0  0  0  0  0  0
    6.0209    1.7258    1.4803 C    0  0  0  0  0  0  0  0  0  0  0  0
    6.9825    0.6080    1.1481 C    0  0  0  0  0  0  0  0  0  0  0  0
    5.0742    1.5868    2.5030 C    0  0  0  0  0  0  0  0  0  0  0  0
    4.1704    2.6086    2.7926 C    0  0  0  0  0  0  0  0  0  0  0  0
    1.4302    3.8075    1.6974 H    0  0  0  0  0  0  0  0  0  0  0  0
    2.1609    4.8033    0.4510 H    0  0  0  0  0  0  0  0  0  0  0  0
    0.5696    5.8864    2.8631 H    0  0  0  0  0  0  0  0  0  0  0  0
    1.3066    6.8896    1.6056 H    0  0  0  0  0  0  0  0  0  0  0  0
   -0.0220    5.7926    1.1969 H    0  0  0  0  0  0  0  0  0  0  0  0
    3.6324    5.8857    2.1768 H    0  0  0  0  0  0  0  0  0  0  0  0
    2.9008    4.8854    3.4249 H    0  0  0  0  0  0  0  0  0  0  0  0
    5.1703    4.8776    0.4844 H    0  0  0  0  0  0  0  0  0  0  0  0
    6.7659    3.0716   -0.0287 H    0  0  0  0  0  0  0  0  0  0  0  0
    7.2271    0.0120    2.0341 H    0  0  0  0  0  0  0  0  0  0  0  0
    6.5567   -0.0784    0.4035 H    0  0  0  0  0  0  0  0  0  0  0  0
    7.9194    0.9947    0.7327 H    0  0  0  0  0  0  0  0  0  0  0  0
    5.0476    0.6682    3.0859 H    0  0  0  0  0  0  0  0  0  0  0  0
    3.4515    2.4739    3.5985 H    0  0  0  0  0  0  0  0  0  0  0  0
  1  2  1  0  0  0  0
  1  3  1  0  0  0  0
  1 11  1  0  0  0  0
  1 12  1  0  0  0  0
  2 13  1  0  0  0  0
  2 14  1  0  0  0  0
  2 15  1  0  0  0  0
  3  4  1  0  0  0  0
  3 16  1  0  0  0  0
  3 17  1  0  0  0  0
  4  5  2  0  0  0  0
  5  6  1  0  0  0  0
  5 18  1  0  0  0  0
  6  7  2  0  0  0  0
  6 19  1  0  0  0  0
  7  8  1  0  0  0  0
  7  9  1  0  0  0  0
  8 20  1  0  0  0  0
  8 21  1  0  0  0  0
  8 22  1  0  0  0  0
  9 10  2  0  0  0  0
  9 23  1  0  0  0  0
 10  4  1  0  0  0  0
 10 24  1  0  0  0  0
M  END
