  1-METHYL-3-PROPYLBENZENE.mol	1074-43-7
  NIST    06301523433D 1   1.00000  -389.51221
Copyright by the U.S. Sec. Commerce on behalf of U.S.A. All rights reserved.
 24 24  0  0  0  0  0  0  0  0999 V2000
    1.7882    4.7326    1.9379 C    0  0  0  0  0  0  0  0  0  0  0  0
    0.6644    5.7094    1.5798 C    0  0  0  0  0  0  0  0  0  0  0  0
    2.6119    4.2904    0.7116 C    0  0  0  0  0  0  0  0  0  0  0  0
    3.7271    3.3275    1.0601 C    0  0  0  0  0  0  0  0  0  0  0  0
    3.5041    1.9453    1.0818 C    0  0  0  0  0  0  0  0  0  0  0  0
    4.5294    1.0684    1.4373 C    0  0  0  0  0  0  0  0  0  0  0  0
    5.7894    1.5603    1.7758 C    0  0  0  0  0  0  0  0  0  0  0  0
    6.0417    2.9387    1.7646 C    0  0  0  0  0  0  0  0  0  0  0  0
    7.3991    3.4799    2.1518 C    0  0  0  0  0  0  0  0  0  0  0  0
    5.0009    3.8010    1.4018 C    0  0  0  0  0  0  0  0  0  0  0  0
    1.3679    3.8430    2.4257 H    0  0  0  0  0  0  0  0  0  0  0  0
    2.4618    5.1926    2.6732 H    0  0  0  0  0  0  0  0  0  0  0  0
    0.0962    6.0058    2.4688 H    0  0  0  0  0  0  0  0  0  0  0  0
   -0.0402    5.2614    0.8680 H    0  0  0  0  0  0  0  0  0  0  0  0
    1.0627    6.6221    1.1195 H    0  0  0  0  0  0  0  0  0  0  0  0
    3.0306    5.1818    0.2252 H    0  0  0  0  0  0  0  0  0  0  0  0
    1.9374    3.8254   -0.0202 H    0  0  0  0  0  0  0  0  0  0  0  0
    2.5254    1.5547    0.8108 H    0  0  0  0  0  0  0  0  0  0  0  0
    4.3479   -0.0035    1.4422 H    0  0  0  0  0  0  0  0  0  0  0  0
    6.5863    0.8704    2.0451 H    0  0  0  0  0  0  0  0  0  0  0  0
    8.2079    2.8453    1.7722 H    0  0  0  0  0  0  0  0  0  0  0  0
    7.5126    3.5283    3.2432 H    0  0  0  0  0  0  0  0  0  0  0  0
    7.5533    4.4919    1.7629 H    0  0  0  0  0  0  0  0  0  0  0  0
    5.1882    4.8738    1.3782 H    0  0  0  0  0  0  0  0  0  0  0  0
  1  2  1  0  0  0  0
  1  3  1  0  0  0  0
  1 11  1  0  0  0  0
  1 12  1  0  0  0  0
  2 13  1  0  0  0  0
  2 14  1  0  0  0  0
  2 15  1  0  0  0  0
  3  4  1  0  0  0  0
  3 16  1  0  0  0  0
  3 17  1  0  0  0  0
  4 10  1  0  0  0  0
  5  4  2  0  0  0  0
  5 18  1  0  0  0  0
  6  5  1  0  0  0  0
  6 19  1  0  0  0  0
  7  6  2  0  0  0  0
  7 20  1  0  0  0  0
  8  7  1  0  0  0  0
  8  9  1  0  0  0  0
  9 21  1  0  0  0  0
  9 22  1  0  0  0  0
  9 23  1  0  0  0  0
 10  8  2  0  0  0  0
 10 24  1  0  0  0  0
M  END
