  1-METHYL-1-ETHYLCYCLOPENTANE.mol	16747-50-5
  NIST    07011515323D 1   1.00000  -314.49682
Copyright by the U.S. Sec. Commerce on behalf of U.S.A. All rights reserved.
 24 24  0  0  0  0  0  0  0  0999 V2000
    1.7354    1.7783    1.2772 C    0  0  0  0  0  0  0  0  0  0  0  0
    0.7907    0.9524    2.1600 C    0  0  0  0  0  0  0  0  0  0  0  0
    2.9839    2.3570    1.9773 C    0  0  0  0  0  0  0  0  0  0  0  0
    2.5812    3.3263    3.1070 C    0  0  0  0  0  0  0  0  0  0  0  0
    3.9394    1.2587    2.5124 C    0  0  0  0  0  0  0  0  0  0  0  0
    3.9028    3.0846    0.9620 C    0  0  0  0  0  0  0  0  0  0  0  0
    5.3318    1.9257    2.6154 C    0  0  0  0  0  0  0  0  0  0  0  0
    5.3092    3.1112    1.6047 C    0  0  0  0  0  0  0  0  0  0  0  0
    1.1698    2.6064    0.8252 H    0  0  0  0  0  0  0  0  0  0  0  0
    2.0744    1.1507    0.4404 H    0  0  0  0  0  0  0  0  0  0  0  0
    1.3093    0.1025    2.6187 H    0  0  0  0  0  0  0  0  0  0  0  0
    0.3548    1.5515    2.9669 H    0  0  0  0  0  0  0  0  0  0  0  0
   -0.0387    0.5510    1.5664 H    0  0  0  0  0  0  0  0  0  0  0  0
    2.0416    2.8117    3.9099 H    0  0  0  0  0  0  0  0  0  0  0  0
    3.4568    3.8048    3.5598 H    0  0  0  0  0  0  0  0  0  0  0  0
    1.9321    4.1237    2.7235 H    0  0  0  0  0  0  0  0  0  0  0  0
    3.9738    0.4346    1.7864 H    0  0  0  0  0  0  0  0  0  0  0  0
    3.6078    0.8305    3.4653 H    0  0  0  0  0  0  0  0  0  0  0  0
    3.5332    4.0850    0.7057 H    0  0  0  0  0  0  0  0  0  0  0  0
    3.9296    2.5063    0.0283 H    0  0  0  0  0  0  0  0  0  0  0  0
    6.1341    1.2127    2.3977 H    0  0  0  0  0  0  0  0  0  0  0  0
    5.5119    2.2915    3.6324 H    0  0  0  0  0  0  0  0  0  0  0  0
    5.4826    4.0611    2.1227 H    0  0  0  0  0  0  0  0  0  0  0  0
    6.0965    3.0245    0.8483 H    0  0  0  0  0  0  0  0  0  0  0  0
  1  2  1  0  0  0  0
  1  3  1  0  0  0  0
  1  9  1  0  0  0  0
  1 10  1  0  0  0  0
  2 11  1  0  0  0  0
  2 12  1  0  0  0  0
  2 13  1  0  0  0  0
  3  4  1  0  0  0  0
  3  6  1  0  0  0  0
  4 14  1  0  0  0  0
  4 15  1  0  0  0  0
  4 16  1  0  0  0  0
  5  3  1  0  0  0  0
  5 17  1  0  0  0  0
  5 18  1  0  0  0  0
  6  8  1  0  0  0  0
  6 19  1  0  0  0  0
  6 20  1  0  0  0  0
  7  5  1  0  0  0  0
  7 21  1  0  0  0  0
  7 22  1  0  0  0  0
  8  7  1  0  0  0  0
  8 23  1  0  0  0  0
  8 24  1  0  0  0  0
M  END
