  1-METHYL-1-ISOPROPYLCYCLOPENTANE.mol	61828-00-0
  NIST    07071500463D 1   1.00000  -353.80532
Copyright by the U.S. Sec. Commerce on behalf of U.S.A. All rights reserved.
 27 27  0  0  0  0  0  0  0  0999 V2000
   -0.6897   -0.8037   -0.4440 C    0  0  0  0  0  0  0  0  0  0  0  0
    0.8621   -0.7430   -0.4466 C    0  0  0  0  0  0  0  0  0  0  0  0
    1.2398    0.2779    0.6511 C    0  0  0  0  0  0  0  0  0  0  0  0
    0.0152    1.2331    0.7706 C    0  0  0  0  0  0  0  0  0  0  0  0
   -1.0484    0.6890   -0.2153 C    0  0  0  0  0  0  0  0  0  0  0  0
   -1.2987   -1.4158   -1.7477 C    0  0  0  0  0  0  0  0  0  0  0  0
   -2.8346   -1.2963   -1.8003 C    0  0  0  0  0  0  0  0  0  0  0  0
   -0.7131   -0.8628   -3.0605 C    0  0  0  0  0  0  0  0  0  0  0  0
   -1.1447   -1.6425    0.7727 C    0  0  0  0  0  0  0  0  0  0  0  0
    1.2203   -0.3744   -1.4131 H    0  0  0  0  0  0  0  0  0  0  0  0
    1.3201   -1.7274   -0.2889 H    0  0  0  0  0  0  0  0  0  0  0  0
    2.1599    0.8150    0.3970 H    0  0  0  0  0  0  0  0  0  0  0  0
    1.4305   -0.2252    1.6054 H    0  0  0  0  0  0  0  0  0  0  0  0
    0.2799    2.2699    0.5369 H    0  0  0  0  0  0  0  0  0  0  0  0
   -0.3707    1.2375    1.7959 H    0  0  0  0  0  0  0  0  0  0  0  0
   -2.0698    0.8234    0.1581 H    0  0  0  0  0  0  0  0  0  0  0  0
   -0.9837    1.2334   -1.1658 H    0  0  0  0  0  0  0  0  0  0  0  0
   -1.0575   -2.4900   -1.7220 H    0  0  0  0  0  0  0  0  0  0  0  0
   -3.1483   -0.2485   -1.8841 H    0  0  0  0  0  0  0  0  0  0  0  0
   -3.3217   -1.7211   -0.9174 H    0  0  0  0  0  0  0  0  0  0  0  0
   -3.2274   -1.8257   -2.6763 H    0  0  0  0  0  0  0  0  0  0  0  0
   -0.8340    0.2247   -3.1383 H    0  0  0  0  0  0  0  0  0  0  0  0
   -1.2350   -1.3069   -3.9164 H    0  0  0  0  0  0  0  0  0  0  0  0
    0.3502   -1.0922   -3.1770 H    0  0  0  0  0  0  0  0  0  0  0  0
   -0.6824   -1.2909    1.7013 H    0  0  0  0  0  0  0  0  0  0  0  0
   -0.8641   -2.6957    0.6455 H    0  0  0  0  0  0  0  0  0  0  0  0
   -2.2289   -1.6003    0.9195 H    0  0  0  0  0  0  0  0  0  0  0  0
  1  2  1  0  0  0  0
  1  5  1  0  0  0  0
  1  9  1  0  0  0  0
  1  6  1  0  0  0  0
  2  3  1  0  0  0  0
  2 10  1  0  0  0  0
  2 11  1  0  0  0  0
  3  4  1  0  0  0  0
  3 12  1  0  0  0  0
  3 13  1  0  0  0  0
  4  5  1  0  0  0  0
  4 14  1  0  0  0  0
  4 15  1  0  0  0  0
  5 16  1  0  0  0  0
  5 17  1  0  0  0  0
  6  8  1  0  0  0  0
  6  7  1  0  0  0  0
  6 18  1  0  0  0  0
  7 19  1  0  0  0  0
  7 20  1  0  0  0  0
  7 21  1  0  0  0  0
  8 22  1  0  0  0  0
  8 23  1  0  0  0  0
  8 24  1  0  0  0  0
  9 25  1  0  0  0  0
  9 26  1  0  0  0  0
  9 27  1  0  0  0  0
M  END
