  1-METHYLCYCLOPENTENE.mol	693-89-0
  NIST    07011509093D 1   1.00000  -234.64814
Copyright by the U.S. Sec. Commerce on behalf of U.S.A. All rights reserved.
 16 16  0  0  0  0  0  0  0  0999 V2000
    0.9659    1.5874    0.9146 C    0  0  0  0  0  0  0  0  0  0  0  0
    1.9512    1.9086    1.9975 C    0  0  0  0  0  0  0  0  0  0  0  0
    2.1650    3.3299    2.4875 C    0  0  0  0  0  0  0  0  0  0  0  0
    2.7750    1.0600    2.6245 C    0  0  0  0  0  0  0  0  0  0  0  0
    3.0281    3.1527    3.7620 C    0  0  0  0  0  0  0  0  0  0  0  0
    3.6724    1.7470    3.6269 C    0  0  0  0  0  0  0  0  0  0  0  0
    1.1908    2.1454   -0.0054 H    0  0  0  0  0  0  0  0  0  0  0  0
    0.9644    0.5201    0.6701 H    0  0  0  0  0  0  0  0  0  0  0  0
   -0.0546    1.8710    1.2076 H    0  0  0  0  0  0  0  0  0  0  0  0
    2.6847    3.9222    1.7176 H    0  0  0  0  0  0  0  0  0  0  0  0
    1.2214    3.8553    2.6881 H    0  0  0  0  0  0  0  0  0  0  0  0
    2.8352   -0.0058    2.4158 H    0  0  0  0  0  0  0  0  0  0  0  0
    3.7674    3.9497    3.8905 H    0  0  0  0  0  0  0  0  0  0  0  0
    2.3783    3.1688    4.6444 H    0  0  0  0  0  0  0  0  0  0  0  0
    3.7290    1.2200    4.5883 H    0  0  0  0  0  0  0  0  0  0  0  0
    4.7055    1.8067    3.2496 H    0  0  0  0  0  0  0  0  0  0  0  0
  1  2  1  0  0  0  0
  1  7  1  0  0  0  0
  1  8  1  0  0  0  0
  1  9  1  0  0  0  0
  2  3  1  0  0  0  0
  3  5  1  0  0  0  0
  3 10  1  0  0  0  0
  3 11  1  0  0  0  0
  4  2  2  0  0  0  0
  4 12  1  0  0  0  0
  5  6  1  0  0  0  0
  5 13  1  0  0  0  0
  5 14  1  0  0  0  0
  6  4  1  0  0  0  0
  6 15  1  0  0  0  0
  6 16  1  0  0  0  0
M  END
