  1-METHYL-2-ISOPROPENYLBENZENE.mol	7399-49-7
  NIST    07011510423D 1   1.00000  -388.27797
Copyright by the U.S. Sec. Commerce on behalf of U.S.A. All rights reserved.
 22 22  0  0  0  0  0  0  0  0999 V2000
    3.1089    2.7895    2.1184 C    0  0  0  0  0  0  0  0  0  0  0  0
    3.2934    4.1332    2.4775 C    0  0  0  0  0  0  0  0  0  0  0  0
    4.5582    4.7205    2.4696 C    0  0  0  0  0  0  0  0  0  0  0  0
    4.2313    2.0142    1.7508 C    0  0  0  0  0  0  0  0  0  0  0  0
    1.7204    2.2261    2.1370 C    0  0  0  0  0  0  0  0  0  0  0  0
    5.4947    2.6186    1.7543 C    0  0  0  0  0  0  0  0  0  0  0  0
    4.1068    0.5516    1.3843 C    0  0  0  0  0  0  0  0  0  0  0  0
    5.6657    3.9584    2.1021 C    0  0  0  0  0  0  0  0  0  0  0  0
    1.0667    2.0563    3.2927 C    0  0  0  0  0  0  0  0  0  0  0  0
    1.0753    1.9275    0.8023 C    0  0  0  0  0  0  0  0  0  0  0  0
    2.4239    4.7195    2.7624 H    0  0  0  0  0  0  0  0  0  0  0  0
    4.6751    5.7637    2.7513 H    0  0  0  0  0  0  0  0  0  0  0  0
    6.3629    2.0196    1.4870 H    0  0  0  0  0  0  0  0  0  0  0  0
    3.3213    0.0569    1.9643 H    0  0  0  0  0  0  0  0  0  0  0  0
    3.8641    0.4154    0.3219 H    0  0  0  0  0  0  0  0  0  0  0  0
    5.0482    0.0234    1.5676 H    0  0  0  0  0  0  0  0  0  0  0  0
    6.6593    4.3988    2.0940 H    0  0  0  0  0  0  0  0  0  0  0  0
    0.0471    1.6785    3.3188 H    0  0  0  0  0  0  0  0  0  0  0  0
    1.5301    2.2845    4.2486 H    0  0  0  0  0  0  0  0  0  0  0  0
    0.0614    1.5347    0.9295 H    0  0  0  0  0  0  0  0  0  0  0  0
    1.0190    2.8374    0.1904 H    0  0  0  0  0  0  0  0  0  0  0  0
    1.6532    1.1980    0.2230 H    0  0  0  0  0  0  0  0  0  0  0  0
  1  2  2  0  0  0  0
  1  5  1  0  0  0  0
  2  3  1  0  0  0  0
  2 11  1  0  0  0  0
  3  8  2  0  0  0  0
  3 12  1  0  0  0  0
  4  1  1  0  0  0  0
  4  7  1  0  0  0  0
  5  9  2  0  0  0  0
  5 10  1  0  0  0  0
  6  4  2  0  0  0  0
  6 13  1  0  0  0  0
  7 14  1  0  0  0  0
  7 15  1  0  0  0  0
  7 16  1  0  0  0  0
  8  6  1  0  0  0  0
  8 17  1  0  0  0  0
  9 18  1  0  0  0  0
  9 19  1  0  0  0  0
 10 20  1  0  0  0  0
 10 21  1  0  0  0  0
 10 22  1  0  0  0  0
M  END
