  1-N-NONYLNAPHTHALENE.mol	26438-26-6
  NIST    06281210073D 1   1.00000  -739.71810
Copyright by the U.S. Sec. Commerce on behalf of U.S.A. All rights reserved.
 45 46  0  0  0  0  0  0  0  0999 V2000
    1.4055   -0.9786    0.9554 C    0  0  0  0  0  0  0  0  0  0  0  0
    2.1036    0.1080    1.4475 C    0  0  0  0  0  0  0  0  0  0  0  0
    1.7830    1.4350    1.0782 C    0  0  0  0  0  0  0  0  0  0  0  0
    0.7466    1.6775    0.2092 C    0  0  0  0  0  0  0  0  0  0  0  0
   -0.0109    0.6008   -0.3239 C    0  0  0  0  0  0  0  0  0  0  0  0
   -1.0915    0.8320   -1.2173 C    0  0  0  0  0  0  0  0  0  0  0  0
   -1.8262   -0.2115   -1.7310 C    0  0  0  0  0  0  0  0  0  0  0  0
   -1.5086   -1.5411   -1.3678 C    0  0  0  0  0  0  0  0  0  0  0  0
   -0.4667   -1.7992   -0.5043 C    0  0  0  0  0  0  0  0  0  0  0  0
    0.3177   -0.7473    0.0474 C    0  0  0  0  0  0  0  0  0  0  0  0
    1.8207   -2.3791    1.3585 C    0  0  0  0  0  0  0  0  0  0  0  0
    2.7090   -3.0877    0.3140 C    0  0  0  0  0  0  0  0  0  0  0  0
    3.1087   -4.5083    0.7319 C    0  0  0  0  0  0  0  0  0  0  0  0
    4.0122   -5.2128   -0.2886 C    0  0  0  0  0  0  0  0  0  0  0  0
    4.4019   -6.6393    0.1200 C    0  0  0  0  0  0  0  0  0  0  0  0
    5.3107   -7.3421   -0.8968 C    0  0  0  0  0  0  0  0  0  0  0  0
    5.6950   -8.7709   -0.4919 C    0  0  0  0  0  0  0  0  0  0  0  0
    6.6059   -9.4736   -1.5068 C    0  0  0  0  0  0  0  0  0  0  0  0
    6.9826  -10.9005   -1.0953 C    0  0  0  0  0  0  0  0  0  0  0  0
    2.9241   -0.0622    2.1413 H    0  0  0  0  0  0  0  0  0  0  0  0
    2.3595    2.2594    1.4896 H    0  0  0  0  0  0  0  0  0  0  0  0
    0.4895    2.6937   -0.0804 H    0  0  0  0  0  0  0  0  0  0  0  0
   -1.3288    1.8583   -1.4886 H    0  0  0  0  0  0  0  0  0  0  0  0
   -2.6502   -0.0186   -2.4128 H    0  0  0  0  0  0  0  0  0  0  0  0
   -2.0919   -2.3640   -1.7727 H    0  0  0  0  0  0  0  0  0  0  0  0
   -0.2414   -2.8271   -0.2397 H    0  0  0  0  0  0  0  0  0  0  0  0
    0.9370   -2.9982    1.5616 H    0  0  0  0  0  0  0  0  0  0  0  0
    2.3719   -2.3233    2.3056 H    0  0  0  0  0  0  0  0  0  0  0  0
    3.6110   -2.4823    0.1493 H    0  0  0  0  0  0  0  0  0  0  0  0
    2.1866   -3.1209   -0.6514 H    0  0  0  0  0  0  0  0  0  0  0  0
    2.2009   -5.1099    0.8895 H    0  0  0  0  0  0  0  0  0  0  0  0
    3.6199   -4.4721    1.7055 H    0  0  0  0  0  0  0  0  0  0  0  0
    4.9240   -4.6157   -0.4384 H    0  0  0  0  0  0  0  0  0  0  0  0
    3.5049   -5.2402   -1.2644 H    0  0  0  0  0  0  0  0  0  0  0  0
    3.4895   -7.2369    0.2651 H    0  0  0  0  0  0  0  0  0  0  0  0
    4.9047   -6.6127    1.0983 H    0  0  0  0  0  0  0  0  0  0  0  0
    6.2251   -6.7466   -1.0384 H    0  0  0  0  0  0  0  0  0  0  0  0
    4.8099   -7.3646   -1.8762 H    0  0  0  0  0  0  0  0  0  0  0  0
    4.7810   -9.3675   -0.3525 H    0  0  0  0  0  0  0  0  0  0  0  0
    6.1945   -8.7497    0.4883 H    0  0  0  0  0  0  0  0  0  0  0  0
    7.5204   -8.8790   -1.6448 H    0  0  0  0  0  0  0  0  0  0  0  0
    6.1075   -9.4945   -2.4865 H    0  0  0  0  0  0  0  0  0  0  0  0
    7.5142  -10.9092   -0.1357 H    0  0  0  0  0  0  0  0  0  0  0  0
    7.6327  -11.3742   -1.8399 H    0  0  0  0  0  0  0  0  0  0  0  0
    6.0908  -11.5295   -0.9837 H    0  0  0  0  0  0  0  0  0  0  0  0
  1  2  1  0  0  0  0
  1 10  2  0  0  0  0
  1 11  1  0  0  0  0
  2  3  2  0  0  0  0
  2 20  1  0  0  0  0
  3  4  1  0  0  0  0
  3 21  1  0  0  0  0
  4  5  2  0  0  0  0
  4 22  1  0  0  0  0
  5  6  1  0  0  0  0
  5 10  1  0  0  0  0
  6  7  2  0  0  0  0
  6 23  1  0  0  0  0
  7  8  1  0  0  0  0
  7 24  1  0  0  0  0
  8  9  2  0  0  0  0
  8 25  1  0  0  0  0
  9 10  1  0  0  0  0
  9 26  1  0  0  0  0
 11 12  1  0  0  0  0
 11 27  1  0  0  0  0
 11 28  1  0  0  0  0
 12 13  1  0  0  0  0
 12 29  1  0  0  0  0
 12 30  1  0  0  0  0
 13 14  1  0  0  0  0
 13 31  1  0  0  0  0
 13 32  1  0  0  0  0
 14 15  1  0  0  0  0
 14 33  1  0  0  0  0
 14 34  1  0  0  0  0
 15 16  1  0  0  0  0
 15 35  1  0  0  0  0
 15 36  1  0  0  0  0
 16 17  1  0  0  0  0
 16 37  1  0  0  0  0
 16 38  1  0  0  0  0
 17 18  1  0  0  0  0
 17 39  1  0  0  0  0
 17 40  1  0  0  0  0
 18 19  1  0  0  0  0
 18 41  1  0  0  0  0
 18 42  1  0  0  0  0
 19 43  1  0  0  0  0
 19 44  1  0  0  0  0
 19 45  1  0  0  0  0
M  END
