  1-N-PROPYLCYCLOPENTENE.mol	3074-61-1
  NIST    07011512053D 1   1.00000  -313.27314
Copyright by the U.S. Sec. Commerce on behalf of U.S.A. All rights reserved.
 22 22  0  0  0  0  0  0  0  0999 V2000
    3.9691    2.8005    2.3460 C    0  0  0  0  0  0  0  0  0  0  0  0
    5.1243    1.9931    2.8922 C    0  0  0  0  0  0  0  0  0  0  0  0
    3.0248    2.0386    1.7777 C    0  0  0  0  0  0  0  0  0  0  0  0
    4.5766    0.5424    2.8687 C    0  0  0  0  0  0  0  0  0  0  0  0
    3.4070    0.5691    1.8547 C    0  0  0  0  0  0  0  0  0  0  0  0
    1.7725    2.4617    1.0555 C    0  0  0  0  0  0  0  0  0  0  0  0
    0.8706    4.3588    2.5449 C    0  0  0  0  0  0  0  0  0  0  0  0
    1.3811    3.9447    1.1596 C    0  0  0  0  0  0  0  0  0  0  0  0
    3.9545    3.8863    2.3847 H    0  0  0  0  0  0  0  0  0  0  0  0
    6.0135    2.1030    2.2515 H    0  0  0  0  0  0  0  0  0  0  0  0
    5.4326    2.3078    3.8978 H    0  0  0  0  0  0  0  0  0  0  0  0
    5.3422   -0.1985    2.6176 H    0  0  0  0  0  0  0  0  0  0  0  0
    4.1902    0.2851    3.8616 H    0  0  0  0  0  0  0  0  0  0  0  0
    3.7174    0.2067    0.8616 H    0  0  0  0  0  0  0  0  0  0  0  0
    2.5678   -0.0695    2.1618 H    0  0  0  0  0  0  0  0  0  0  0  0
    0.9330    1.8431    1.4111 H    0  0  0  0  0  0  0  0  0  0  0  0
    1.8868    2.1926   -0.0072 H    0  0  0  0  0  0  0  0  0  0  0  0
    0.6104    5.4234    2.5685 H    0  0  0  0  0  0  0  0  0  0  0  0
    1.6201    4.1768    3.3217 H    0  0  0  0  0  0  0  0  0  0  0  0
   -0.0289    3.7913    2.8145 H    0  0  0  0  0  0  0  0  0  0  0  0
    2.2380    4.5689    0.8734 H    0  0  0  0  0  0  0  0  0  0  0  0
    0.5989    4.1476    0.4164 H    0  0  0  0  0  0  0  0  0  0  0  0
  1  2  1  0  0  0  0
  1  9  1  0  0  0  0
  2  4  1  0  0  0  0
  2 10  1  0  0  0  0
  2 11  1  0  0  0  0
  3  1  2  0  0  0  0
  3  6  1  0  0  0  0
  4  5  1  0  0  0  0
  4 12  1  0  0  0  0
  4 13  1  0  0  0  0
  5  3  1  0  0  0  0
  5 14  1  0  0  0  0
  5 15  1  0  0  0  0
  6  8  1  0  0  0  0
  6 16  1  0  0  0  0
  6 17  1  0  0  0  0
  7  8  1  0  0  0  0
  7 18  1  0  0  0  0
  7 19  1  0  0  0  0
  7 20  1  0  0  0  0
  8 21  1  0  0  0  0
  8 22  1  0  0  0  0
M  END
