  1-NAPHTHYLAMINE.mol	134-32-7
  NIST    08011311463D 1   1.00000     0.00000
Copyright by the U.S. Sec. Commerce on behalf of U.S.A. All rights reserved.
 20 21  0  0  0  0  0  0  0  0999 V2000
    6.8557    1.1729    1.5458 C    0  0  0  0  0  0  0  0  0  0  0  0
    6.8976    1.8369    0.2981 C    0  0  0  0  0  0  0  0  0  0  0  0
    5.7180    0.4996    1.9298 C    0  0  0  0  0  0  0  0  0  0  0  0
    5.8081    1.7967   -0.5452 C    0  0  0  0  0  0  0  0  0  0  0  0
    4.5739    0.4423    1.0890 C    0  0  0  0  0  0  0  0  0  0  0  0
    3.3876   -0.2279    1.4913 C    0  0  0  0  0  0  0  0  0  0  0  0
    2.2973   -0.2559    0.6532 C    0  0  0  0  0  0  0  0  0  0  0  0
    4.6286    1.0901   -0.1894 C    0  0  0  0  0  0  0  0  0  0  0  0
    3.4864    1.0073   -1.0573 C    0  0  0  0  0  0  0  0  0  0  0  0
    3.5194    1.6403   -2.3081 N    0  0  0  0  0  0  0  0  0  0  0  0
    2.3477    0.3492   -0.6211 C    0  0  0  0  0  0  0  0  0  0  0  0
    7.7195    1.2058    2.2046 H    0  0  0  0  0  0  0  0  0  0  0  0
    7.7877    2.3889    0.0086 H    0  0  0  0  0  0  0  0  0  0  0  0
    5.6752    0.0007    2.8953 H    0  0  0  0  0  0  0  0  0  0  0  0
    5.8432    2.3453   -1.4819 H    0  0  0  0  0  0  0  0  0  0  0  0
    3.3561   -0.7083    2.4656 H    0  0  0  0  0  0  0  0  0  0  0  0
    1.3863   -0.7640    0.9585 H    0  0  0  0  0  0  0  0  0  0  0  0
    2.7518    1.3713   -2.9129 H    0  0  0  0  0  0  0  0  0  0  0  0
    4.4002    1.5514   -2.8011 H    0  0  0  0  0  0  0  0  0  0  0  0
    1.4821    0.2899   -1.2776 H    0  0  0  0  0  0  0  0  0  0  0  0
  9 10  1  0
 11  7  2  0
  7  6  1  0
  6  5  2  0
  5  3  1  0
  3  1  2  0
  1  2  1  0
  2  4  2  0
  4  8  1  0
  5  8  1  0
  8  9  2  0
 11  9  1  0
  1 12  1  0
  2 13  1  0
  3 14  1  0
  4 15  1  0
  6 16  1  0
  7 17  1  0
 10 18  1  0
 10 19  1  0
 11 20  1  0
M  END
