  1-NITROBUTANE.mol	627-05-4
  NIST    11121313213D 1   1.00000  -362.95537
Copyright by the U.S. Sec. Commerce on behalf of U.S.A. All rights reserved.
 16 15  0  0  0  0  0  0  0  0999 V2000
   52.0064    0.0165   -0.1669 C    0  0  0  0  0  0  0  0  0  0  0  0
   53.3363    0.7192   -0.0204 N    0  0  0  0  0  0  0  0  0  0  0  0
   50.8321    0.9573    0.0850 C    0  0  0  0  0  0  0  0  0  0  0  0
   54.2108    0.1411    0.6175 O    0  0  0  0  0  0  0  0  0  0  0  0
   53.4586    1.8117   -0.5678 O    0  0  0  0  0  0  0  0  0  0  0  0
   49.4856    0.2437   -0.1007 C    0  0  0  0  0  0  0  0  0  0  0  0
   48.2924    1.1714    0.1493 C    0  0  0  0  0  0  0  0  0  0  0  0
   51.9991   -0.3640   -1.1939 H    0  0  0  0  0  0  0  0  0  0  0  0
   52.0430   -0.8238    0.5270 H    0  0  0  0  0  0  0  0  0  0  0  0
   50.9024    1.3583    1.1046 H    0  0  0  0  0  0  0  0  0  0  0  0
   50.9098    1.8083   -0.5993 H    0  0  0  0  0  0  0  0  0  0  0  0
   49.4266   -0.1636   -1.1198 H    0  0  0  0  0  0  0  0  0  0  0  0
   49.4285   -0.6184    0.5783 H    0  0  0  0  0  0  0  0  0  0  0  0
   47.3443    0.6407    0.0107 H    0  0  0  0  0  0  0  0  0  0  0  0
   48.3067    1.5689    1.1711 H    0  0  0  0  0  0  0  0  0  0  0  0
   48.3027    2.0244   -0.5395 H    0  0  0  0  0  0  0  0  0  0  0  0
  1  2  1  0
  1  3  1  0
  2  4  2  0
  2  5  2  0
  3  6  1  0
  6  7  1  0
  1  8  1  0
  1  9  1  0
  3 10  1  0
  3 11  1  0
  6 12  1  0
  6 13  1  0
  7 14  1  0
  7 15  1  0
  7 16  1  0
M  END
