  1-NONADECANOL.mol	1454-84-8
  NIST    11071316233D 1   1.00000  -823.36688
Copyright by the U.S. Sec. Commerce on behalf of U.S.A. All rights reserved.
 60 59  0  0  0  0  0  0  0  0999 V2000
   -0.1217   -0.3431   -0.0003 C    0  0  0  0  0  0  0  0  0  0  0  0
    1.2032    0.4264   -0.0001 C    0  0  0  0  0  0  0  0  0  0  0  0
    1.0204    1.9494   -0.0001 C    0  0  0  0  0  0  0  0  0  0  0  0
    2.3433    2.7261    0.0000 C    0  0  0  0  0  0  0  0  0  0  0  0
    2.1640    4.2496   -0.0000 C    0  0  0  0  0  0  0  0  0  0  0  0
    3.4899    5.0217    0.0001 C    0  0  0  0  0  0  0  0  0  0  0  0
    3.3159    6.5458    0.0001 C    0  0  0  0  0  0  0  0  0  0  0  0
    5.8054    9.6023    0.0002 C    0  0  0  0  0  0  0  0  0  0  0  0
    4.4751    8.8379    0.0001 C    0  0  0  0  0  0  0  0  0  0  0  0
    5.6386   11.1272    0.0002 C    0  0  0  0  0  0  0  0  0  0  0  0
    4.6444    7.3133    0.0002 C    0  0  0  0  0  0  0  0  0  0  0  0
    8.1332   14.1793    0.0001 C    0  0  0  0  0  0  0  0  0  0  0  0
    6.8027   13.4153    0.0001 C    0  0  0  0  0  0  0  0  0  0  0  0
    7.9643   15.7040    0.0000 C    0  0  0  0  0  0  0  0  0  0  0  0
    6.9696   11.8904    0.0002 C    0  0  0  0  0  0  0  0  0  0  0  0
   10.4544   18.7528   -0.0002 C    0  0  0  0  0  0  0  0  0  0  0  0
    9.1221   17.9937   -0.0001 C    0  0  0  0  0  0  0  0  0  0  0  0
   10.2805   20.2658   -0.0002 C    0  0  0  0  0  0  0  0  0  0  0  0
    9.2939   16.4692   -0.0000 C    0  0  0  0  0  0  0  0  0  0  0  0
   11.5762   20.8582   -0.0003 O    0  0  0  0  0  0  0  0  0  0  0  0
    0.0436   -1.4266   -0.0003 H    0  0  0  0  0  0  0  0  0  0  0  0
   -0.7228   -0.0980    0.8842 H    0  0  0  0  0  0  0  0  0  0  0  0
   -0.7226   -0.0980   -0.8850 H    0  0  0  0  0  0  0  0  0  0  0  0
    1.7966    0.1334   -0.8781 H    0  0  0  0  0  0  0  0  0  0  0  0
    1.7963    0.1334    0.8780 H    0  0  0  0  0  0  0  0  0  0  0  0
    0.4259    2.2425    0.8783 H    0  0  0  0  0  0  0  0  0  0  0  0
    0.4261    2.2425   -0.8787 H    0  0  0  0  0  0  0  0  0  0  0  0
    2.9369    2.4311   -0.8783 H    0  0  0  0  0  0  0  0  0  0  0  0
    2.9367    2.4311    0.8785 H    0  0  0  0  0  0  0  0  0  0  0  0
    1.5711    4.5455    0.8784 H    0  0  0  0  0  0  0  0  0  0  0  0
    1.5713    4.5455   -0.8785 H    0  0  0  0  0  0  0  0  0  0  0  0
    4.0824    4.7246   -0.8782 H    0  0  0  0  0  0  0  0  0  0  0  0
    4.0823    4.7246    0.8785 H    0  0  0  0  0  0  0  0  0  0  0  0
    2.7241    6.8438    0.8785 H    0  0  0  0  0  0  0  0  0  0  0  0
    2.7242    6.8438   -0.8784 H    0  0  0  0  0  0  0  0  0  0  0  0
    6.3962    9.3022    0.8786 H    0  0  0  0  0  0  0  0  0  0  0  0
    6.3963    9.3021   -0.8781 H    0  0  0  0  0  0  0  0  0  0  0  0
    3.8841    9.1376   -0.8783 H    0  0  0  0  0  0  0  0  0  0  0  0
    3.8841    9.1376    0.8786 H    0  0  0  0  0  0  0  0  0  0  0  0
    5.0480   11.4276   -0.8783 H    0  0  0  0  0  0  0  0  0  0  0  0
    5.0479   11.4276    0.8786 H    0  0  0  0  0  0  0  0  0  0  0  0
    5.2360    7.0144   -0.8781 H    0  0  0  0  0  0  0  0  0  0  0  0
    5.2358    7.0144    0.8786 H    0  0  0  0  0  0  0  0  0  0  0  0
    8.7241   13.8797    0.8785 H    0  0  0  0  0  0  0  0  0  0  0  0
    8.7241   13.8796   -0.8783 H    0  0  0  0  0  0  0  0  0  0  0  0
    6.2119   13.7154   -0.8783 H    0  0  0  0  0  0  0  0  0  0  0  0
    6.2120   13.7155    0.8785 H    0  0  0  0  0  0  0  0  0  0  0  0
    7.3732   16.0032   -0.8784 H    0  0  0  0  0  0  0  0  0  0  0  0
    7.3732   16.0033    0.8785 H    0  0  0  0  0  0  0  0  0  0  0  0
    7.5602   11.5901    0.8786 H    0  0  0  0  0  0  0  0  0  0  0  0
    7.5603   11.5900   -0.8782 H    0  0  0  0  0  0  0  0  0  0  0  0
   11.0490   18.4734    0.8798 H    0  0  0  0  0  0  0  0  0  0  0  0
   11.0489   18.4733   -0.8801 H    0  0  0  0  0  0  0  0  0  0  0  0
    8.5302   18.2902   -0.8790 H    0  0  0  0  0  0  0  0  0  0  0  0
    8.5303   18.2903    0.8788 H    0  0  0  0  0  0  0  0  0  0  0  0
    9.7028   20.5751   -0.8880 H    0  0  0  0  0  0  0  0  0  0  0  0
    9.7029   20.5752    0.8875 H    0  0  0  0  0  0  0  0  0  0  0  0
    9.8854   16.1716    0.8783 H    0  0  0  0  0  0  0  0  0  0  0  0
    9.8854   16.1715   -0.8784 H    0  0  0  0  0  0  0  0  0  0  0  0
   11.4628   21.8205   -0.0003 H    0  0  0  0  0  0  0  0  0  0  0  0
  1  2  1  0
  2  3  1  0
  3  4  1  0
  4  5  1  0
  5  6  1  0
  6  7  1  0
  7 11  1  0
  8  9  1  0
  8 10  1  0
  9 11  1  0
 10 15  1  0
 12 13  1  0
 12 14  1  0
 13 15  1  0
 14 19  1  0
 16 17  1  0
 16 18  1  0
 17 19  1  0
 18 20  1  0
  1 21  1  0
  1 22  1  0
  1 23  1  0
  2 24  1  0
  2 25  1  0
  3 26  1  0
  3 27  1  0
  4 28  1  0
  4 29  1  0
  5 30  1  0
  5 31  1  0
  6 32  1  0
  6 33  1  0
  7 34  1  0
  7 35  1  0
  8 36  1  0
  8 37  1  0
  9 38  1  0
  9 39  1  0
 10 40  1  0
 10 41  1  0
 11 42  1  0
 11 43  1  0
 12 44  1  0
 12 45  1  0
 13 46  1  0
 13 47  1  0
 14 48  1  0
 14 49  1  0
 15 50  1  0
 15 51  1  0
 16 52  1  0
 16 53  1  0
 17 54  1  0
 17 55  1  0
 18 56  1  0
 18 57  1  0
 19 58  1  0
 19 59  1  0
 20 60  1  0
M  END
