
 OpenBabel11251910413D

 28 27  0  0  0  0  0  0  0  0999 V2000
    4.2668    2.3985    2.1633 C   0  0  0  0  0  0  0  0  0  0  0  0
    3.2822    2.9094    3.2219 C   0  0  0  0  0  0  0  0  0  0  0  0
    3.2241    1.9590    4.4238 C   0  0  0  0  0  0  0  0  0  0  0  0
    4.3250    3.3489    0.9614 C   0  0  0  0  0  0  0  0  0  0  0  0
    2.2395    2.4699    5.4823 C   0  0  0  0  0  0  0  0  0  0  0  0
    5.3081    2.8380   -0.0958 C   0  0  0  0  0  0  0  0  0  0  0  0
    2.1821    1.5193    6.6837 C   0  0  0  0  0  0  0  0  0  0  0  0
    5.3615    3.7816   -1.2597 C   0  0  0  0  0  0  0  0  0  0  0  0
    1.2032    2.0244    7.7396 C   0  0  0  0  0  0  0  0  0  0  0  0
    5.0629    3.3984   -2.3795 O   0  0  0  0  0  0  0  0  0  0  0  0
    3.9448    1.3908    1.8190 H   0  0  0  0  0  0  0  0  0  0  0  0
    5.2802    2.3154    2.6146 H   0  0  0  0  0  0  0  0  0  0  0  0
    2.2687    2.9924    2.7705 H   0  0  0  0  0  0  0  0  0  0  0  0
    3.6041    3.9171    3.5663 H   0  0  0  0  0  0  0  0  0  0  0  0
    4.2375    1.8761    4.8751 H   0  0  0  0  0  0  0  0  0  0  0  0
    2.9022    0.9513    4.0794 H   0  0  0  0  0  0  0  0  0  0  0  0
    4.6470    4.3568    1.3063 H   0  0  0  0  0  0  0  0  0  0  0  0
    3.3118    3.4321    0.5090 H   0  0  0  0  0  0  0  0  0  0  0  0
    1.2259    2.5527    5.0313 H   0  0  0  0  0  0  0  0  0  0  0  0
    2.5613    3.4776    5.8270 H   0  0  0  0  0  0  0  0  0  0  0  0
    4.9907    1.8294   -0.4422 H   0  0  0  0  0  0  0  0  0  0  0  0
    6.3261    2.7592    0.3427 H   0  0  0  0  0  0  0  0  0  0  0  0
    3.1916    1.4347    7.1420 H   0  0  0  0  0  0  0  0  0  0  0  0
    1.8574    0.5106    6.3470 H   0  0  0  0  0  0  0  0  0  0  0  0
    5.6698    4.8112   -1.1088 H   0  0  0  0  0  0  0  0  0  0  0  0
    1.5167    3.0235    8.1104 H   0  0  0  0  0  0  0  0  0  0  0  0
    0.1797    2.0976    7.3138 H   0  0  0  0  0  0  0  0  0  0  0  0
    1.1822    1.3179    8.5960 H   0  0  0  0  0  0  0  0  0  0  0  0
  1  2  1  0  0  0  0
  1  4  1  0  0  0  0
  1 11  1  0  0  0  0
  1 12  1  0  0  0  0
  2  3  1  0  0  0  0
  2 13  1  0  0  0  0
  2 14  1  0  0  0  0
  3  5  1  0  0  0  0
  3 15  1  0  0  0  0
  3 16  1  0  0  0  0
  4  6  1  0  0  0  0
  4 17  1  0  0  0  0
  4 18  1  0  0  0  0
  5  7  1  0  0  0  0
  5 19  1  0  0  0  0
  5 20  1  0  0  0  0
  6  8  1  0  0  0  0
  6 21  1  0  0  0  0
  6 22  1  0  0  0  0
  7  9  1  0  0  0  0
  7 23  1  0  0  0  0
  7 24  1  0  0  0  0
  8 10  2  0  0  0  0
  8 25  1  0  0  0  0
  9 26  1  0  0  0  0
  9 27  1  0  0  0  0
  9 28  1  0  0  0  0
M  END
