  1-OCTADECYNE.mol	629-89-0
  NIST    07011522393D 1   1.00000  -706.35940
Copyright by the U.S. Sec. Commerce on behalf of U.S.A. All rights reserved.
 52 51  0  0  0  0  0  0  0  0999 V2000
    0.6806    1.6044    1.7104 C    0  0  0  0  0  0  0  0  0  0  0  0
    1.9623    1.3416    0.9132 C    0  0  0  0  0  0  0  0  0  0  0  0
    3.2414    1.5858    1.7242 C    0  0  0  0  0  0  0  0  0  0  0  0
    4.5298    1.3198    0.9352 C    0  0  0  0  0  0  0  0  0  0  0  0
    5.8087    1.5647    1.7464 C    0  0  0  0  0  0  0  0  0  0  0  0
    7.0968    1.2942    0.9582 C    0  0  0  0  0  0  0  0  0  0  0  0
    8.3759    1.5358    1.7701 C    0  0  0  0  0  0  0  0  0  0  0  0
   14.7959    1.1628    1.0362 C    0  0  0  0  0  0  0  0  0  0  0  0
   13.5097    1.4442    1.8238 C    0  0  0  0  0  0  0  0  0  0  0  0
   16.0754    1.3780    1.8548 C    0  0  0  0  0  0  0  0  0  0  0  0
   12.2300    1.2180    1.0085 C    0  0  0  0  0  0  0  0  0  0  0  0
   10.9430    1.4963    1.7958 C    0  0  0  0  0  0  0  0  0  0  0  0
    9.6635    1.2611    0.9826 C    0  0  0  0  0  0  0  0  0  0  0  0
   22.1446    1.3350    2.5231 C    0  0  0  0  0  0  0  0  0  0  0  0
   21.1441    1.1843    1.8635 C    0  0  0  0  0  0  0  0  0  0  0  0
   19.9181    1.0066    1.0841 C    0  0  0  0  0  0  0  0  0  0  0  0
   18.6357    1.2978    1.8924 C    0  0  0  0  0  0  0  0  0  0  0  0
   17.3606    1.0943    1.0666 C    0  0  0  0  0  0  0  0  0  0  0  0
    0.6210    0.9532    2.5913 H    0  0  0  0  0  0  0  0  0  0  0  0
    0.6395    2.6420    2.0643 H    0  0  0  0  0  0  0  0  0  0  0  0
   -0.2136    1.4245    1.1026 H    0  0  0  0  0  0  0  0  0  0  0  0
    1.9739    1.9800    0.0181 H    0  0  0  0  0  0  0  0  0  0  0  0
    1.9589    0.3053    0.5460 H    0  0  0  0  0  0  0  0  0  0  0  0
    3.2459    2.6239    2.0891 H    0  0  0  0  0  0  0  0  0  0  0  0
    3.2273    0.9500    2.6222 H    0  0  0  0  0  0  0  0  0  0  0  0
    4.5426    1.9549    0.0367 H    0  0  0  0  0  0  0  0  0  0  0  0
    4.5243    0.2815    0.5713 H    0  0  0  0  0  0  0  0  0  0  0  0
    5.8158    2.6038    2.1082 H    0  0  0  0  0  0  0  0  0  0  0  0
    5.7944    0.9315    2.6461 H    0  0  0  0  0  0  0  0  0  0  0  0
    7.1121    1.9283    0.0591 H    0  0  0  0  0  0  0  0  0  0  0  0
    7.0884    0.2555    0.5953 H    0  0  0  0  0  0  0  0  0  0  0  0
    8.3859    2.5749    2.1316 H    0  0  0  0  0  0  0  0  0  0  0  0
    8.3593    0.9028    2.6699 H    0  0  0  0  0  0  0  0  0  0  0  0
   14.7739    0.1279    0.6636 H    0  0  0  0  0  0  0  0  0  0  0  0
   14.8230    1.8054    0.1435 H    0  0  0  0  0  0  0  0  0  0  0  0
   13.5283    2.4810    2.1913 H    0  0  0  0  0  0  0  0  0  0  0  0
   13.4865    0.8061    2.7198 H    0  0  0  0  0  0  0  0  0  0  0  0
   16.0994    2.4126    2.2279 H    0  0  0  0  0  0  0  0  0  0  0  0
   16.0482    0.7348    2.7469 H    0  0  0  0  0  0  0  0  0  0  0  0
   12.2524    1.8561    0.1124 H    0  0  0  0  0  0  0  0  0  0  0  0
   12.2131    0.1811    0.6409 H    0  0  0  0  0  0  0  0  0  0  0  0
   10.9234    0.8617    2.6944 H    0  0  0  0  0  0  0  0  0  0  0  0
   10.9569    2.5347    2.1593 H    0  0  0  0  0  0  0  0  0  0  0  0
    9.6821    1.8963    0.0844 H    0  0  0  0  0  0  0  0  0  0  0  0
    9.6513    0.2230    0.6184 H    0  0  0  0  0  0  0  0  0  0  0  0
   23.0303    1.4666    3.1017 H    0  0  0  0  0  0  0  0  0  0  0  0
   19.8787   -0.0216    0.6969 H    0  0  0  0  0  0  0  0  0  0  0  0
   19.9492    1.6609    0.2012 H    0  0  0  0  0  0  0  0  0  0  0  0
   18.6173    0.6466    2.7759 H    0  0  0  0  0  0  0  0  0  0  0  0
   18.6785    2.3279    2.2689 H    0  0  0  0  0  0  0  0  0  0  0  0
   17.3335    0.0617    0.6874 H    0  0  0  0  0  0  0  0  0  0  0  0
   17.3931    1.7431    0.1785 H    0  0  0  0  0  0  0  0  0  0  0  0
  1  2  1  0  0  0  0
  1 19  1  0  0  0  0
  1 20  1  0  0  0  0
  1 21  1  0  0  0  0
  2  3  1  0  0  0  0
  2 22  1  0  0  0  0
  2 23  1  0  0  0  0
  3  4  1  0  0  0  0
  3 24  1  0  0  0  0
  3 25  1  0  0  0  0
  4  5  1  0  0  0  0
  4 26  1  0  0  0  0
  4 27  1  0  0  0  0
  5  6  1  0  0  0  0
  5 28  1  0  0  0  0
  5 29  1  0  0  0  0
  6  7  1  0  0  0  0
  6 30  1  0  0  0  0
  6 31  1  0  0  0  0
  7 13  1  0  0  0  0
  7 32  1  0  0  0  0
  7 33  1  0  0  0  0
  8  9  1  0  0  0  0
  8 10  1  0  0  0  0
  8 34  1  0  0  0  0
  8 35  1  0  0  0  0
  9 11  1  0  0  0  0
  9 36  1  0  0  0  0
  9 37  1  0  0  0  0
 10 18  1  0  0  0  0
 10 38  1  0  0  0  0
 10 39  1  0  0  0  0
 11 12  1  0  0  0  0
 11 40  1  0  0  0  0
 11 41  1  0  0  0  0
 12 13  1  0  0  0  0
 12 42  1  0  0  0  0
 12 43  1  0  0  0  0
 13 44  1  0  0  0  0
 13 45  1  0  0  0  0
 14 15  3  0  0  0  0
 14 46  1  0  0  0  0
 15 16  1  0  0  0  0
 16 17  1  0  0  0  0
 16 47  1  0  0  0  0
 16 48  1  0  0  0  0
 17 18  1  0  0  0  0
 17 49  1  0  0  0  0
 17 50  1  0  0  0  0
 18 51  1  0  0  0  0
 18 52  1  0  0  0  0
M  END
