  1-PENTANETHIOL.mol	110-66-7
  NIST    06301518283D 1   1.00000  -595.95520
Copyright by the U.S. Sec. Commerce on behalf of U.S.A. All rights reserved.
 18 17  0  0  0  0  0  0  0  0999 V2000
    4.4215    1.3998    1.7272 C    0  0  0  0  0  0  0  0  0  0  0  0
    2.9974    1.9276    1.4979 C    0  0  0  0  0  0  0  0  0  0  0  0
    2.0390    0.8626    0.9484 C    0  0  0  0  0  0  0  0  0  0  0  0
    5.3649    2.4783    2.2632 C    0  0  0  0  0  0  0  0  0  0  0  0
    0.6183    1.3899    0.7230 C    0  0  0  0  0  0  0  0  0  0  0  0
    7.0734    1.8893    2.6318 S    0  0  0  0  0  0  0  0  0  0  0  0
    4.8210    1.0043    0.7826 H    0  0  0  0  0  0  0  0  0  0  0  0
    4.4013    0.5578    2.4307 H    0  0  0  0  0  0  0  0  0  0  0  0
    3.0287    2.7797    0.8027 H    0  0  0  0  0  0  0  0  0  0  0  0
    2.5978    2.3212    2.4443 H    0  0  0  0  0  0  0  0  0  0  0  0
    2.0086    0.0112    1.6427 H    0  0  0  0  0  0  0  0  0  0  0  0
    2.4388    0.4700    0.0027 H    0  0  0  0  0  0  0  0  0  0  0  0
    5.0026    2.8637    3.2226 H    0  0  0  0  0  0  0  0  0  0  0  0
    5.4222    3.3295    1.5767 H    0  0  0  0  0  0  0  0  0  0  0  0
    0.1791    1.7585    1.6581 H    0  0  0  0  0  0  0  0  0  0  0  0
    0.6121    2.2196    0.0054 H    0  0  0  0  0  0  0  0  0  0  0  0
   -0.0408    0.6067    0.3318 H    0  0  0  0  0  0  0  0  0  0  0  0
    7.3816    1.5000    1.3749 H    0  0  0  0  0  0  0  0  0  0  0  0
  1  2  1  0  0  0  0
  1  4  1  0  0  0  0
  1  7  1  0  0  0  0
  1  8  1  0  0  0  0
  2  3  1  0  0  0  0
  2  9  1  0  0  0  0
  2 10  1  0  0  0  0
  3  5  1  0  0  0  0
  3 11  1  0  0  0  0
  3 12  1  0  0  0  0
  4  6  1  0  0  0  0
  4 13  1  0  0  0  0
  4 14  1  0  0  0  0
  5 15  1  0  0  0  0
  5 16  1  0  0  0  0
  5 17  1  0  0  0  0
  6 18  1  0  0  0  0
M  END
