  1-TETRADECANOL.mol	112-72-1
  NIST    07081505093D 1   1.00000  -626.79824
Copyright by the U.S. Sec. Commerce on behalf of U.S.A. All rights reserved.
 45 44  0  0  0  0  0  0  0  0999 V2000
   -0.1153   -0.2296    0.0000 C    0  0  0  0  0  0  0  0  0  0  0  0
    1.2329    0.4981    0.0000 C    0  0  0  0  0  0  0  0  0  0  0  0
    1.0975    2.0262    0.0000 C    0  0  0  0  0  0  0  0  0  0  0  0
    2.4437    2.7615    0.0000 C    0  0  0  0  0  0  0  0  0  0  0  0
    2.3107    4.2898    0.0000 C    0  0  0  0  0  0  0  0  0  0  0  0
    3.6589    5.0220    0.0000 C    0  0  0  0  0  0  0  0  0  0  0  0
    3.5289    6.5506    0.0000 C    0  0  0  0  0  0  0  0  0  0  0  0
    4.8784    7.2804    0.0000 C    0  0  0  0  0  0  0  0  0  0  0  0
    8.5281   14.0420    0.0000 C    0  0  0  0  0  0  0  0  0  0  0  0
    7.1861   13.3217    0.0001 C    0  0  0  0  0  0  0  0  0  0  0  0
    8.2762   15.4444    0.0001 O    0  0  0  0  0  0  0  0  0  0  0  0
    7.3227   11.7944    0.0000 C    0  0  0  0  0  0  0  0  0  0  0  0
    5.9722   11.0663    0.0001 C    0  0  0  0  0  0  0  0  0  0  0  0
    6.1004    9.5377    0.0000 C    0  0  0  0  0  0  0  0  0  0  0  0
    4.7503    8.8091    0.0000 C    0  0  0  0  0  0  0  0  0  0  0  0
    0.0162   -1.3178    0.0000 H    0  0  0  0  0  0  0  0  0  0  0  0
   -0.7082    0.0339    0.8847 H    0  0  0  0  0  0  0  0  0  0  0  0
   -0.7083    0.0340   -0.8845 H    0  0  0  0  0  0  0  0  0  0  0  0
    1.8168    0.1869   -0.8781 H    0  0  0  0  0  0  0  0  0  0  0  0
    1.8169    0.1868    0.8779 H    0  0  0  0  0  0  0  0  0  0  0  0
    0.5126    2.3377    0.8786 H    0  0  0  0  0  0  0  0  0  0  0  0
    0.5125    2.3378   -0.8784 H    0  0  0  0  0  0  0  0  0  0  0  0
    3.0277    2.4484   -0.8785 H    0  0  0  0  0  0  0  0  0  0  0  0
    3.0278    2.4483    0.8784 H    0  0  0  0  0  0  0  0  0  0  0  0
    1.7272    4.6035    0.8785 H    0  0  0  0  0  0  0  0  0  0  0  0
    1.7271    4.6036   -0.8784 H    0  0  0  0  0  0  0  0  0  0  0  0
    4.2422    4.7076   -0.8784 H    0  0  0  0  0  0  0  0  0  0  0  0
    4.2423    4.7076    0.8783 H    0  0  0  0  0  0  0  0  0  0  0  0
    2.9460    6.8654    0.8785 H    0  0  0  0  0  0  0  0  0  0  0  0
    2.9459    6.8655   -0.8783 H    0  0  0  0  0  0  0  0  0  0  0  0
    5.4612    6.9652   -0.8785 H    0  0  0  0  0  0  0  0  0  0  0  0
    5.4613    6.9651    0.8784 H    0  0  0  0  0  0  0  0  0  0  0  0
    9.1117   13.7439    0.8877 H    0  0  0  0  0  0  0  0  0  0  0  0
    9.1116   13.7440   -0.8877 H    0  0  0  0  0  0  0  0  0  0  0  0
    6.6173   13.6505   -0.8798 H    0  0  0  0  0  0  0  0  0  0  0  0
    6.6174   13.6504    0.8800 H    0  0  0  0  0  0  0  0  0  0  0  0
    9.1315   15.8999    0.0000 H    0  0  0  0  0  0  0  0  0  0  0  0
    7.9039   11.4774    0.8788 H    0  0  0  0  0  0  0  0  0  0  0  0
    7.9038   11.4775   -0.8789 H    0  0  0  0  0  0  0  0  0  0  0  0
    5.3904   11.3827   -0.8783 H    0  0  0  0  0  0  0  0  0  0  0  0
    5.3905   11.3826    0.8785 H    0  0  0  0  0  0  0  0  0  0  0  0
    6.6830    9.2221    0.8785 H    0  0  0  0  0  0  0  0  0  0  0  0
    6.6829    9.2222   -0.8786 H    0  0  0  0  0  0  0  0  0  0  0  0
    4.1678    9.1247    0.8785 H    0  0  0  0  0  0  0  0  0  0  0  0
    4.1677    9.1247   -0.8783 H    0  0  0  0  0  0  0  0  0  0  0  0
  1  2  1  0  0  0  0
  1 16  1  0  0  0  0
  1 17  1  0  0  0  0
  1 18  1  0  0  0  0
  2  3  1  0  0  0  0
  2 19  1  0  0  0  0
  2 20  1  0  0  0  0
  3  4  1  0  0  0  0
  3 21  1  0  0  0  0
  3 22  1  0  0  0  0
  4  5  1  0  0  0  0
  4 23  1  0  0  0  0
  4 24  1  0  0  0  0
  5  6  1  0  0  0  0
  5 25  1  0  0  0  0
  5 26  1  0  0  0  0
  6  7  1  0  0  0  0
  6 27  1  0  0  0  0
  6 28  1  0  0  0  0
  7  8  1  0  0  0  0
  7 29  1  0  0  0  0
  7 30  1  0  0  0  0
  8 15  1  0  0  0  0
  8 31  1  0  0  0  0
  8 32  1  0  0  0  0
  9 10  1  0  0  0  0
  9 11  1  0  0  0  0
  9 33  1  0  0  0  0
  9 34  1  0  0  0  0
 10 12  1  0  0  0  0
 10 35  1  0  0  0  0
 10 36  1  0  0  0  0
 11 37  1  0  0  0  0
 12 13  1  0  0  0  0
 12 38  1  0  0  0  0
 12 39  1  0  0  0  0
 13 14  1  0  0  0  0
 13 40  1  0  0  0  0
 13 41  1  0  0  0  0
 14 15  1  0  0  0  0
 14 42  1  0  0  0  0
 14 43  1  0  0  0  0
 15 44  1  0  0  0  0
 15 45  1  0  0  0  0
M  END
