  1-UNDECANOL.mol	112-42-5
  NIST    07011508233D 1   1.00000  -508.85082
Copyright by the U.S. Sec. Commerce on behalf of U.S.A. All rights reserved.
 36 35  0  0  0  0  0  0  0  0999 V2000
    6.2017    3.2606    2.5652 C    0  0  0  0  0  0  0  0  0  0  0  0
    5.5883    4.6371    2.2648 C    0  0  0  0  0  0  0  0  0  0  0  0
    4.9583    4.7578    0.8657 C    0  0  0  0  0  0  0  0  0  0  0  0
    6.9581    3.1772    3.9030 C    0  0  0  0  0  0  0  0  0  0  0  0
    3.7296    3.8661    0.6023 C    0  0  0  0  0  0  0  0  0  0  0  0
    6.0590    3.2690    5.1450 C    0  0  0  0  0  0  0  0  0  0  0  0
    2.5085    4.1217    1.5039 C    0  0  0  0  0  0  0  0  0  0  0  0
    6.8145    3.2227    6.4839 C    0  0  0  0  0  0  0  0  0  0  0  0
    1.8924    5.5212    1.3699 C    0  0  0  0  0  0  0  0  0  0  0  0
    7.5194    1.9018    6.7776 C    0  0  0  0  0  0  0  0  0  0  0  0
    0.6250    5.6994    2.2130 C    0  0  0  0  0  0  0  0  0  0  0  0
    6.5369    0.8686    6.8079 O    0  0  0  0  0  0  0  0  0  0  0  0
    6.8958    3.0054    1.7511 H    0  0  0  0  0  0  0  0  0  0  0  0
    5.4205    2.4878    2.5507 H    0  0  0  0  0  0  0  0  0  0  0  0
    4.8426    4.8918    3.0291 H    0  0  0  0  0  0  0  0  0  0  0  0
    6.3786    5.3969    2.3534 H    0  0  0  0  0  0  0  0  0  0  0  0
    5.7246    4.5181    0.1142 H    0  0  0  0  0  0  0  0  0  0  0  0
    4.6883    5.8076    0.6902 H    0  0  0  0  0  0  0  0  0  0  0  0
    7.7163    3.9748    3.9394 H    0  0  0  0  0  0  0  0  0  0  0  0
    7.5110    2.2288    3.9267 H    0  0  0  0  0  0  0  0  0  0  0  0
    3.4258    4.0012   -0.4458 H    0  0  0  0  0  0  0  0  0  0  0  0
    4.0194    2.8108    0.6944 H    0  0  0  0  0  0  0  0  0  0  0  0
    5.3280    2.4512    5.1245 H    0  0  0  0  0  0  0  0  0  0  0  0
    5.4838    4.2034    5.1133 H    0  0  0  0  0  0  0  0  0  0  0  0
    1.7390    3.3748    1.2610 H    0  0  0  0  0  0  0  0  0  0  0  0
    2.7731    3.9427    2.5558 H    0  0  0  0  0  0  0  0  0  0  0  0
    6.1084    3.4159    7.3019 H    0  0  0  0  0  0  0  0  0  0  0  0
    7.5662    4.0244    6.5189 H    0  0  0  0  0  0  0  0  0  0  0  0
    2.6271    6.2838    1.6608 H    0  0  0  0  0  0  0  0  0  0  0  0
    1.6588    5.7123    0.3124 H    0  0  0  0  0  0  0  0  0  0  0  0
    8.2837    1.6955    6.0113 H    0  0  0  0  0  0  0  0  0  0  0  0
    8.0418    1.9768    7.7455 H    0  0  0  0  0  0  0  0  0  0  0  0
   -0.1500    4.9798    1.9211 H    0  0  0  0  0  0  0  0  0  0  0  0
    0.8331    5.5443    3.2790 H    0  0  0  0  0  0  0  0  0  0  0  0
    0.2053    6.7056    2.0994 H    0  0  0  0  0  0  0  0  0  0  0  0
    6.9937    0.0266    6.9523 H    0  0  0  0  0  0  0  0  0  0  0  0
  1  2  1  0  0  0  0
  1  4  1  0  0  0  0
  1 13  1  0  0  0  0
  1 14  1  0  0  0  0
  2  3  1  0  0  0  0
  2 15  1  0  0  0  0
  2 16  1  0  0  0  0
  3  5  1  0  0  0  0
  3 17  1  0  0  0  0
  3 18  1  0  0  0  0
  4  6  1  0  0  0  0
  4 19  1  0  0  0  0
  4 20  1  0  0  0  0
  5  7  1  0  0  0  0
  5 21  1  0  0  0  0
  5 22  1  0  0  0  0
  6  8  1  0  0  0  0
  6 23  1  0  0  0  0
  6 24  1  0  0  0  0
  7  9  1  0  0  0  0
  7 25  1  0  0  0  0
  7 26  1  0  0  0  0
  8 10  1  0  0  0  0
  8 27  1  0  0  0  0
  8 28  1  0  0  0  0
  9 11  1  0  0  0  0
  9 29  1  0  0  0  0
  9 30  1  0  0  0  0
 10 12  1  0  0  0  0
 10 31  1  0  0  0  0
 10 32  1  0  0  0  0
 11 33  1  0  0  0  0
 11 34  1  0  0  0  0
 11 35  1  0  0  0  0
 12 36  1  0  0  0  0
M  END
