  2,2,4,4-TETRAMETHYLHEXANE.mol	51750-65-3
  NIST    08031423593D 1   1.00000    -0.08364
Copyright by the U.S. Sec. Commerce on behalf of U.S.A. All rights reserved.
 32 31  0  0  0  0  0  0  0  0999 V2000
   -1.9457    0.7955    1.7993 C    0  0  0  0  0  0  0  0  0  0  0  0
   -0.6647    1.5322    1.3814 C    0  0  0  0  0  0  0  0  0  0  0  0
    0.6378    0.6975    1.1671 C    0  0  0  0  0  0  0  0  0  0  0  0
    1.8225    1.6467    1.4822 C    0  0  0  0  0  0  0  0  0  0  0  0
    0.7263   -0.4744    2.1661 C    0  0  0  0  0  0  0  0  0  0  0  0
    0.8913    0.2345   -0.3083 C    0  0  0  0  0  0  0  0  0  0  0  0
   -0.0707   -0.6025   -1.2105 C    0  0  0  0  0  0  0  0  0  0  0  0
    0.7600   -0.9903   -2.4578 C    0  0  0  0  0  0  0  0  0  0  0  0
   -0.5605   -1.9083   -0.5554 C    0  0  0  0  0  0  0  0  0  0  0  0
   -1.2766    0.2220   -1.7070 C    0  0  0  0  0  0  0  0  0  0  0  0
   -2.7773    1.5062    1.8753 H    0  0  0  0  0  0  0  0  0  0  0  0
   -2.2465    0.0164    1.0935 H    0  0  0  0  0  0  0  0  0  0  0  0
   -1.8323    0.3224    2.7805 H    0  0  0  0  0  0  0  0  0  0  0  0
   -0.4581    2.2703    2.1688 H    0  0  0  0  0  0  0  0  0  0  0  0
   -0.8555    2.1216    0.4751 H    0  0  0  0  0  0  0  0  0  0  0  0
    2.7871    1.1627    1.2858 H    0  0  0  0  0  0  0  0  0  0  0  0
    1.7757    2.5572    0.8716 H    0  0  0  0  0  0  0  0  0  0  0  0
    1.8087    1.9503    2.5359 H    0  0  0  0  0  0  0  0  0  0  0  0
    1.6848   -0.9974    2.0591 H    0  0  0  0  0  0  0  0  0  0  0  0
   -0.0682   -1.2123    2.0357 H    0  0  0  0  0  0  0  0  0  0  0  0
    0.6679   -0.1061    3.1982 H    0  0  0  0  0  0  0  0  0  0  0  0
    1.1141    1.1456   -0.8837 H    0  0  0  0  0  0  0  0  0  0  0  0
    1.8400   -0.3213   -0.2745 H    0  0  0  0  0  0  0  0  0  0  0  0
    0.1438   -1.5367   -3.1820 H    0  0  0  0  0  0  0  0  0  0  0  0
    1.1591   -0.1017   -2.9623 H    0  0  0  0  0  0  0  0  0  0  0  0
    1.6085   -1.6313   -2.1887 H    0  0  0  0  0  0  0  0  0  0  0  0
   -1.0882   -2.5263   -1.2929 H    0  0  0  0  0  0  0  0  0  0  0  0
   -1.2532   -1.7278    0.2716 H    0  0  0  0  0  0  0  0  0  0  0  0
    0.2785   -2.4991   -0.1685 H    0  0  0  0  0  0  0  0  0  0  0  0
   -0.9432    1.1359   -2.2145 H    0  0  0  0  0  0  0  0  0  0  0  0
   -1.8641   -0.3597   -2.4287 H    0  0  0  0  0  0  0  0  0  0  0  0
   -1.9521    0.5168   -0.9006 H    0  0  0  0  0  0  0  0  0  0  0  0
  1  2  1  0  0  0  0
  1 11  1  0  0  0  0
  1 12  1  0  0  0  0
  1 13  1  0  0  0  0
  2  3  1  0  0  0  0
  2 14  1  0  0  0  0
  2 15  1  0  0  0  0
  3  4  1  0  0  0  0
  3  5  1  0  0  0  0
  3  6  1  0  0  0  0
  4 16  1  0  0  0  0
  4 17  1  0  0  0  0
  4 18  1  0  0  0  0
  5 19  1  0  0  0  0
  5 20  1  0  0  0  0
  5 21  1  0  0  0  0
  6  7  1  0  0  0  0
  6 22  1  0  0  0  0
  6 23  1  0  0  0  0
  7  8  1  0  0  0  0
  7  9  1  0  0  0  0
  7 10  1  0  0  0  0
  8 24  1  0  0  0  0
  8 25  1  0  0  0  0
  8 26  1  0  0  0  0
  9 27  1  0  0  0  0
  9 28  1  0  0  0  0
  9 29  1  0  0  0  0
 10 30  1  0  0  0  0
 10 31  1  0  0  0  0
 10 32  1  0  0  0  0
M  END
