  2,2,4,4-TETRAMETHYLPENTANE.mol	1070-87-7
  NIST    07021519093D 1   1.00000  -355.01427
Copyright by the U.S. Sec. Commerce on behalf of U.S.A. All rights reserved.
 29 28  0  0  0  0  0  0  0  0999 V2000
    3.3152    2.0881    1.6761 C    0  0  0  0  0  0  0  0  0  0  0  0
    1.8099    1.9014    2.0514 C    0  0  0  0  0  0  0  0  0  0  0  0
    4.3715    2.8279    2.5584 C    0  0  0  0  0  0  0  0  0  0  0  0
    1.5835    1.3742    3.4812 C    0  0  0  0  0  0  0  0  0  0  0  0
    1.2490    0.8526    1.0629 C    0  0  0  0  0  0  0  0  0  0  0  0
    0.9992    3.2008    1.8549 C    0  0  0  0  0  0  0  0  0  0  0  0
    3.9090    4.2100    3.0572 C    0  0  0  0  0  0  0  0  0  0  0  0
    5.6106    3.0363    1.6567 C    0  0  0  0  0  0  0  0  0  0  0  0
    4.8177    1.9748    3.7655 C    0  0  0  0  0  0  0  0  0  0  0  0
    3.3174    2.5798    0.6920 H    0  0  0  0  0  0  0  0  0  0  0  0
    3.7285    1.0846    1.4968 H    0  0  0  0  0  0  0  0  0  0  0  0
    1.8583    2.1125    4.2414 H    0  0  0  0  0  0  0  0  0  0  0  0
    2.1595    0.4609    3.6715 H    0  0  0  0  0  0  0  0  0  0  0  0
    0.5232    1.1338    3.6305 H    0  0  0  0  0  0  0  0  0  0  0  0
    1.7394   -0.1199    1.1934 H    0  0  0  0  0  0  0  0  0  0  0  0
    1.3999    1.1659    0.0223 H    0  0  0  0  0  0  0  0  0  0  0  0
    0.1723    0.7083    1.2153 H    0  0  0  0  0  0  0  0  0  0  0  0
   -0.0713    3.0062    1.9966 H    0  0  0  0  0  0  0  0  0  0  0  0
    1.1306    3.5973    0.8403 H    0  0  0  0  0  0  0  0  0  0  0  0
    1.2844    3.9858    2.5601 H    0  0  0  0  0  0  0  0  0  0  0  0
    3.0985    4.1346    3.7897 H    0  0  0  0  0  0  0  0  0  0  0  0
    4.7410    4.7324    3.5462 H    0  0  0  0  0  0  0  0  0  0  0  0
    3.5620    4.8419    2.2312 H    0  0  0  0  0  0  0  0  0  0  0  0
    5.9741    2.0828    1.2533 H    0  0  0  0  0  0  0  0  0  0  0  0
    6.4322    3.4947    2.2207 H    0  0  0  0  0  0  0  0  0  0  0  0
    5.3803    3.6916    0.8076 H    0  0  0  0  0  0  0  0  0  0  0  0
    4.0187    1.8288    4.4967 H    0  0  0  0  0  0  0  0  0  0  0  0
    5.6530    2.4606    4.2855 H    0  0  0  0  0  0  0  0  0  0  0  0
    5.1619    0.9843    3.4422 H    0  0  0  0  0  0  0  0  0  0  0  0
  1  2  1  0  0  0  0
  1  3  1  0  0  0  0
  1 10  1  0  0  0  0
  1 11  1  0  0  0  0
  2  4  1  0  0  0  0
  2  5  1  0  0  0  0
  2  6  1  0  0  0  0
  3  7  1  0  0  0  0
  3  8  1  0  0  0  0
  3  9  1  0  0  0  0
  4 12  1  0  0  0  0
  4 13  1  0  0  0  0
  4 14  1  0  0  0  0
  5 15  1  0  0  0  0
  5 16  1  0  0  0  0
  5 17  1  0  0  0  0
  6 18  1  0  0  0  0
  6 19  1  0  0  0  0
  6 20  1  0  0  0  0
  7 21  1  0  0  0  0
  7 22  1  0  0  0  0
  7 23  1  0  0  0  0
  8 24  1  0  0  0  0
  8 25  1  0  0  0  0
  8 26  1  0  0  0  0
  9 27  1  0  0  0  0
  9 28  1  0  0  0  0
  9 29  1  0  0  0  0
M  END
