  2,2-DIMETHYLHEXANE.mol	590-73-8
  NIST    07011514463D 1   1.00000  -315.70934
Copyright by the U.S. Sec. Commerce on behalf of U.S.A. All rights reserved.
 26 25  0  0  0  0  0  0  0  0999 V2000
    3.4261    2.6262    2.4357 C    0  0  0  0  0  0  0  0  0  0  0  0
    2.0630    1.8817    2.4269 C    0  0  0  0  0  0  0  0  0  0  0  0
    4.6499    1.8536    1.9194 C    0  0  0  0  0  0  0  0  0  0  0  0
    0.9935    2.8477    2.9751 C    0  0  0  0  0  0  0  0  0  0  0  0
    2.1084    0.6320    3.3281 C    0  0  0  0  0  0  0  0  0  0  0  0
    1.6712    1.4693    0.9943 C    0  0  0  0  0  0  0  0  0  0  0  0
    5.9721    2.6341    2.0348 C    0  0  0  0  0  0  0  0  0  0  0  0
    6.0607    3.8784    1.1429 C    0  0  0  0  0  0  0  0  0  0  0  0
    3.3080    3.5475    1.8485 H    0  0  0  0  0  0  0  0  0  0  0  0
    3.6309    2.9506    3.4678 H    0  0  0  0  0  0  0  0  0  0  0  0
    4.7553    0.9156    2.4797 H    0  0  0  0  0  0  0  0  0  0  0  0
    4.4997    1.5684    0.8688 H    0  0  0  0  0  0  0  0  0  0  0  0
    0.9202    3.7507    2.3563 H    0  0  0  0  0  0  0  0  0  0  0  0
    0.0044    2.3735    2.9925 H    0  0  0  0  0  0  0  0  0  0  0  0
    1.2312    3.1627    3.9988 H    0  0  0  0  0  0  0  0  0  0  0  0
    2.4085    0.8919    4.3511 H    0  0  0  0  0  0  0  0  0  0  0  0
    1.1206    0.1579    3.3819 H    0  0  0  0  0  0  0  0  0  0  0  0
    2.8117   -0.1197    2.9528 H    0  0  0  0  0  0  0  0  0  0  0  0
    1.6446    2.3386    0.3250 H    0  0  0  0  0  0  0  0  0  0  0  0
    0.6748    1.0102    0.9815 H    0  0  0  0  0  0  0  0  0  0  0  0
    2.3731    0.7418    0.5717 H    0  0  0  0  0  0  0  0  0  0  0  0
    6.7991    1.9575    1.7802 H    0  0  0  0  0  0  0  0  0  0  0  0
    6.1298    2.9242    3.0837 H    0  0  0  0  0  0  0  0  0  0  0  0
    5.9036    3.6186    0.0882 H    0  0  0  0  0  0  0  0  0  0  0  0
    5.3129    4.6322    1.4132 H    0  0  0  0  0  0  0  0  0  0  0  0
    7.0463    4.3510    1.2248 H    0  0  0  0  0  0  0  0  0  0  0  0
  1  2  1  0  0  0  0
  1  3  1  0  0  0  0
  1  9  1  0  0  0  0
  1 10  1  0  0  0  0
  2  4  1  0  0  0  0
  2  5  1  0  0  0  0
  2  6  1  0  0  0  0
  3  7  1  0  0  0  0
  3 11  1  0  0  0  0
  3 12  1  0  0  0  0
  4 13  1  0  0  0  0
  4 14  1  0  0  0  0
  4 15  1  0  0  0  0
  5 16  1  0  0  0  0
  5 17  1  0  0  0  0
  5 18  1  0  0  0  0
  6 19  1  0  0  0  0
  6 20  1  0  0  0  0
  6 21  1  0  0  0  0
  7  8  1  0  0  0  0
  7 22  1  0  0  0  0
  7 23  1  0  0  0  0
  8 24  1  0  0  0  0
  8 25  1  0  0  0  0
  8 26  1  0  0  0  0
M  END
