  2,2-DIMETHYL-3-ETHYLPENTANE.mol	16747-32-3
  NIST    07011522133D 1   1.00000  -355.01376
Copyright by the U.S. Sec. Commerce on behalf of U.S.A. All rights reserved.
 29 28  0  0  0  0  0  0  0  0999 V2000
    3.4873    2.1398    2.5955 C    0  0  0  0  0  0  0  0  0  0  0  0
    1.9204    2.1727    2.7216 C    0  0  0  0  0  0  0  0  0  0  0  0
    4.0800    3.3333    1.7862 C    0  0  0  0  0  0  0  0  0  0  0  0
    4.2110    2.0106    3.9582 C    0  0  0  0  0  0  0  0  0  0  0  0
    1.2764    2.3418    1.3287 C    0  0  0  0  0  0  0  0  0  0  0  0
    1.4443    3.3201    3.6361 C    0  0  0  0  0  0  0  0  0  0  0  0
    1.4062    0.8338    3.2966 C    0  0  0  0  0  0  0  0  0  0  0  0
    4.5159    2.9821    0.3578 C    0  0  0  0  0  0  0  0  0  0  0  0
    5.6555    1.5080    3.8356 C    0  0  0  0  0  0  0  0  0  0  0  0
    3.7139    1.2196    2.0328 H    0  0  0  0  0  0  0  0  0  0  0  0
    4.9511    3.7343    2.3190 H    0  0  0  0  0  0  0  0  0  0  0  0
    3.3623    4.1621    1.7509 H    0  0  0  0  0  0  0  0  0  0  0  0
    3.6687    1.3235    4.6173 H    0  0  0  0  0  0  0  0  0  0  0  0
    4.2078    2.9851    4.4654 H    0  0  0  0  0  0  0  0  0  0  0  0
    0.1829    2.3124    1.4096 H    0  0  0  0  0  0  0  0  0  0  0  0
    1.5789    1.5340    0.6507 H    0  0  0  0  0  0  0  0  0  0  0  0
    1.5425    3.2937    0.8584 H    0  0  0  0  0  0  0  0  0  0  0  0
    1.8130    3.2011    4.6608 H    0  0  0  0  0  0  0  0  0  0  0  0
    0.3485    3.3430    3.6813 H    0  0  0  0  0  0  0  0  0  0  0  0
    1.7767    4.2993    3.2724 H    0  0  0  0  0  0  0  0  0  0  0  0
    0.3095    0.8182    3.3019 H    0  0  0  0  0  0  0  0  0  0  0  0
    1.7359    0.6630    4.3263 H    0  0  0  0  0  0  0  0  0  0  0  0
    1.7465   -0.0145    2.6895 H    0  0  0  0  0  0  0  0  0  0  0  0
    4.9298    3.8573   -0.1573 H    0  0  0  0  0  0  0  0  0  0  0  0
    3.6798    2.6077   -0.2428 H    0  0  0  0  0  0  0  0  0  0  0  0
    5.2892    2.2041    0.3649 H    0  0  0  0  0  0  0  0  0  0  0  0
    5.6852    0.5064    3.3888 H    0  0  0  0  0  0  0  0  0  0  0  0
    6.1362    1.4480    4.8189 H    0  0  0  0  0  0  0  0  0  0  0  0
    6.2702    2.1658    3.2100 H    0  0  0  0  0  0  0  0  0  0  0  0
  1  2  1  0  0  0  0
  1  3  1  0  0  0  0
  1  4  1  0  0  0  0
  1 10  1  0  0  0  0
  2  5  1  0  0  0  0
  2  6  1  0  0  0  0
  2  7  1  0  0  0  0
  3  8  1  0  0  0  0
  3 11  1  0  0  0  0
  3 12  1  0  0  0  0
  4  9  1  0  0  0  0
  4 13  1  0  0  0  0
  4 14  1  0  0  0  0
  5 15  1  0  0  0  0
  5 16  1  0  0  0  0
  5 17  1  0  0  0  0
  6 18  1  0  0  0  0
  6 19  1  0  0  0  0
  6 20  1  0  0  0  0
  7 21  1  0  0  0  0
  7 22  1  0  0  0  0
  7 23  1  0  0  0  0
  8 24  1  0  0  0  0
  8 25  1  0  0  0  0
  8 26  1  0  0  0  0
  9 27  1  0  0  0  0
  9 28  1  0  0  0  0
  9 29  1  0  0  0  0
M  END
