  2,3,3-TRIMETHYLPENTANE.mol	560-21-4
  NIST    06301522253D 1   1.00000  -315.70259
Copyright by the U.S. Sec. Commerce on behalf of U.S.A. All rights reserved.
 26 25  0  0  0  0  0  0  0  0999 V2000
    4.2747    1.8660    2.8009 C    0  0  0  0  0  0  0  0  0  0  0  0
    2.9217    2.0802    2.0260 C    0  0  0  0  0  0  0  0  0  0  0  0
    1.9886    2.9712    2.8984 C    0  0  0  0  0  0  0  0  0  0  0  0
    2.2504    0.7083    1.7996 C    0  0  0  0  0  0  0  0  0  0  0  0
    3.1556    2.7527    0.6575 C    0  0  0  0  0  0  0  0  0  0  0  0
    4.9453    3.1658    3.2858 C    0  0  0  0  0  0  0  0  0  0  0  0
    5.3188    1.0357    2.0302 C    0  0  0  0  0  0  0  0  0  0  0  0
    0.5249    3.0987    2.4526 C    0  0  0  0  0  0  0  0  0  0  0  0
    4.0081    1.2906    3.7017 H    0  0  0  0  0  0  0  0  0  0  0  0
    2.4146    3.9805    2.9484 H    0  0  0  0  0  0  0  0  0  0  0  0
    2.0040    2.5841    3.9280 H    0  0  0  0  0  0  0  0  0  0  0  0
    2.0344    0.2097    2.7535 H    0  0  0  0  0  0  0  0  0  0  0  0
    1.3050    0.8132    1.2574 H    0  0  0  0  0  0  0  0  0  0  0  0
    2.8817    0.0383    1.2080 H    0  0  0  0  0  0  0  0  0  0  0  0
    2.2067    2.9245    0.1373 H    0  0  0  0  0  0  0  0  0  0  0  0
    3.6534    3.7240    0.7599 H    0  0  0  0  0  0  0  0  0  0  0  0
    3.7712    2.1277    0.0015 H    0  0  0  0  0  0  0  0  0  0  0  0
    5.8785    2.9298    3.8109 H    0  0  0  0  0  0  0  0  0  0  0  0
    5.2047    3.8266    2.4494 H    0  0  0  0  0  0  0  0  0  0  0  0
    4.3178    3.7325    3.9796 H    0  0  0  0  0  0  0  0  0  0  0  0
    5.7002    1.5778    1.1568 H    0  0  0  0  0  0  0  0  0  0  0  0
    6.1776    0.8229    2.6777 H    0  0  0  0  0  0  0  0  0  0  0  0
    4.9282    0.0741    1.6839 H    0  0  0  0  0  0  0  0  0  0  0  0
    0.4355    3.4606    1.4219 H    0  0  0  0  0  0  0  0  0  0  0  0
    0.0003    3.8165    3.0940 H    0  0  0  0  0  0  0  0  0  0  0  0
   -0.0146    2.1485    2.5207 H    0  0  0  0  0  0  0  0  0  0  0  0
  1  2  1  0  0  0  0
  1  6  1  0  0  0  0
  1  7  1  0  0  0  0
  1  9  1  0  0  0  0
  2  3  1  0  0  0  0
  2  4  1  0  0  0  0
  2  5  1  0  0  0  0
  3  8  1  0  0  0  0
  3 10  1  0  0  0  0
  3 11  1  0  0  0  0
  4 12  1  0  0  0  0
  4 13  1  0  0  0  0
  4 14  1  0  0  0  0
  5 15  1  0  0  0  0
  5 16  1  0  0  0  0
  5 17  1  0  0  0  0
  6 18  1  0  0  0  0
  6 19  1  0  0  0  0
  6 20  1  0  0  0  0
  7 21  1  0  0  0  0
  7 22  1  0  0  0  0
  7 23  1  0  0  0  0
  8 24  1  0  0  0  0
  8 25  1  0  0  0  0
  8 26  1  0  0  0  0
M  END
