  2,3,4,5,6-PENTAFLUOROTOLUENE.mol	771-56-2
  NIST    11071316233D 1   1.00000  -767.70123
Copyright by the U.S. Sec. Commerce on behalf of U.S.A. All rights reserved.
 15 15  0  0  0  0  0  0  0  0999 V2000
    6.3514    1.8678   -0.6728 C    0  0  0  0  0  0  0  0  0  0  0  0
    7.2550    3.0331   -0.9822 C    0  0  0  0  0  0  0  0  0  0  0  0
    6.8450    0.6069   -0.3362 C    0  0  0  0  0  0  0  0  0  0  0  0
    4.9626    2.0056   -0.7113 C    0  0  0  0  0  0  0  0  0  0  0  0
    8.1719    0.3975   -0.2783 F    0  0  0  0  0  0  0  0  0  0  0  0
    6.0056   -0.4689   -0.0509 C    0  0  0  0  0  0  0  0  0  0  0  0
    4.4319    3.1990   -1.0295 F    0  0  0  0  0  0  0  0  0  0  0  0
    4.0983    0.9516   -0.4319 C    0  0  0  0  0  0  0  0  0  0  0  0
    6.5186   -1.6634    0.2679 F    0  0  0  0  0  0  0  0  0  0  0  0
    4.6256   -0.2947   -0.0994 C    0  0  0  0  0  0  0  0  0  0  0  0
    2.7722    1.1257   -0.4803 F    0  0  0  0  0  0  0  0  0  0  0  0
    3.8089   -1.3174    0.1717 F    0  0  0  0  0  0  0  0  0  0  0  0
    8.3021    2.7381   -0.9003 H    0  0  0  0  0  0  0  0  0  0  0  0
    7.0768    3.4076   -1.9961 H    0  0  0  0  0  0  0  0  0  0  0  0
    7.0720    3.8640   -0.2923 H    0  0  0  0  0  0  0  0  0  0  0  0
  1  2  1  0
  3  5  1  0
  4  7  1  0
  6  9  1  0
  8 11  1  0
 10 12  1  0
  1  3  1  0
  3  6  2  0
  6 10  1  0
 10  8  2  0
  8  4  1  0
  1  4  2  0
  2 13  1  0
  2 14  1  0
  2 15  1  0
M  END
