  2,3,3,4-TETRAMETHYLPENTANE.mol	16747-38-9
  NIST    07011506563D 1   1.00000  -355.00608
Copyright by the U.S. Sec. Commerce on behalf of U.S.A. All rights reserved.
 29 28  0  0  0  0  0  0  0  0999 V2000
    3.6534    1.9560    2.4203 C    0  0  0  0  0  0  0  0  0  0  0  0
    3.4376    3.4683    2.0251 C    0  0  0  0  0  0  0  0  0  0  0  0
    2.0618    4.1408    2.4057 C    0  0  0  0  0  0  0  0  0  0  0  0
    3.6448    3.5837    0.4948 C    0  0  0  0  0  0  0  0  0  0  0  0
    4.5626    4.3188    2.6648 C    0  0  0  0  0  0  0  0  0  0  0  0
    3.9922    1.6730    3.8982 C    0  0  0  0  0  0  0  0  0  0  0  0
    2.5420    0.9887    1.9727 C    0  0  0  0  0  0  0  0  0  0  0  0
    0.8574    3.7997    1.5039 C    0  0  0  0  0  0  0  0  0  0  0  0
    1.6360    3.9920    3.8784 C    0  0  0  0  0  0  0  0  0  0  0  0
    4.5547    1.6686    1.8561 H    0  0  0  0  0  0  0  0  0  0  0  0
    2.2469    5.2150    2.2479 H    0  0  0  0  0  0  0  0  0  0  0  0
    4.6799    3.3339    0.2319 H    0  0  0  0  0  0  0  0  0  0  0  0
    2.9922    2.9172   -0.0764 H    0  0  0  0  0  0  0  0  0  0  0  0
    3.4559    4.6078    0.1495 H    0  0  0  0  0  0  0  0  0  0  0  0
    4.5716    5.3252    2.2290 H    0  0  0  0  0  0  0  0  0  0  0  0
    4.4498    4.4321    3.7470 H    0  0  0  0  0  0  0  0  0  0  0  0
    5.5472    3.8718    2.4795 H    0  0  0  0  0  0  0  0  0  0  0  0
    3.1503    1.8690    4.5683 H    0  0  0  0  0  0  0  0  0  0  0  0
    4.2564    0.6144    4.0125 H    0  0  0  0  0  0  0  0  0  0  0  0
    4.8466    2.2579    4.2508 H    0  0  0  0  0  0  0  0  0  0  0  0
    1.6380    1.0985    2.5818 H    0  0  0  0  0  0  0  0  0  0  0  0
    2.2589    1.1222    0.9240 H    0  0  0  0  0  0  0  0  0  0  0  0
    2.8838   -0.0469    2.0893 H    0  0  0  0  0  0  0  0  0  0  0  0
    1.0590    3.9930    0.4464 H    0  0  0  0  0  0  0  0  0  0  0  0
    0.5406    2.7574    1.6010 H    0  0  0  0  0  0  0  0  0  0  0  0
    0.0028    4.4253    1.7897 H    0  0  0  0  0  0  0  0  0  0  0  0
    2.4436    4.2222    4.5800 H    0  0  0  0  0  0  0  0  0  0  0  0
    0.8088    4.6786    4.0957 H    0  0  0  0  0  0  0  0  0  0  0  0
    1.2781    2.9801    4.0983 H    0  0  0  0  0  0  0  0  0  0  0  0
  1  2  1  0  0  0  0
  1  6  1  0  0  0  0
  1  7  1  0  0  0  0
  1 10  1  0  0  0  0
  2  3  1  0  0  0  0
  2  4  1  0  0  0  0
  2  5  1  0  0  0  0
  3  8  1  0  0  0  0
  3  9  1  0  0  0  0
  3 11  1  0  0  0  0
  4 12  1  0  0  0  0
  4 13  1  0  0  0  0
  4 14  1  0  0  0  0
  5 15  1  0  0  0  0
  5 16  1  0  0  0  0
  5 17  1  0  0  0  0
  6 18  1  0  0  0  0
  6 19  1  0  0  0  0
  6 20  1  0  0  0  0
  7 21  1  0  0  0  0
  7 22  1  0  0  0  0
  7 23  1  0  0  0  0
  8 24  1  0  0  0  0
  8 25  1  0  0  0  0
  8 26  1  0  0  0  0
  9 27  1  0  0  0  0
  9 28  1  0  0  0  0
  9 29  1  0  0  0  0
M  END
