  2,3-DICHLOROPROPENE.mol	78-88-6
  NIST    06201411093D 1   1.00000 -1037.09620
Copyright by the U.S. Sec. Commerce on behalf of U.S.A. All rights reserved.
  9  8  0  0  0  0  0  0  0  0999 V2000
   -0.0961    0.0135    0.0000 C    0  0  0  0  0  0  0  0  0  0  0  0
    1.1011    0.5866   -0.0000 C    0  0  0  0  0  0  0  0  0  0  0  0
    2.4620   -0.0572   -0.0001 C    0  0  0  0  0  0  0  0  0  0  0  0
    1.2619    2.3491   -0.0001 Cl   0  0  0  0  0  0  0  0  0  0  0  0
    2.4165   -1.8626    0.0000 Cl   0  0  0  0  0  0  0  0  0  0  0  0
   -1.0066    0.6013    0.0001 H    0  0  0  0  0  0  0  0  0  0  0  0
   -0.1785   -1.0673    0.0001 H    0  0  0  0  0  0  0  0  0  0  0  0
    3.0255    0.2464   -0.8859 H    0  0  0  0  0  0  0  0  0  0  0  0
    3.0257    0.2465    0.8855 H    0  0  0  0  0  0  0  0  0  0  0  0
  1  2  2  0
  2  3  1  0
  2  4  1  0
  3  5  1  0
  1  6  1  0
  1  7  1  0
  3  8  1  0
  3  9  1  0
M  END
