  2,3-DIMETHYL-2-HEXENE.mol	7145-20-2
  NIST    07011511463D 1   1.00000  -314.48171
Copyright by the U.S. Sec. Commerce on behalf of U.S.A. All rights reserved.
 24 23  0  0  0  0  0  0  0  0999 V2000
    4.0414    3.1715    3.0775 C    0  0  0  0  0  0  0  0  0  0  0  0
    2.9893    2.9154    2.0081 C    0  0  0  0  0  0  0  0  0  0  0  0
    2.0356    1.9633    2.0989 C    0  0  0  0  0  0  0  0  0  0  0  0
    3.1167    3.8739    0.8410 C    0  0  0  0  0  0  0  0  0  0  0  0
    5.4543    2.6399    2.7390 C    0  0  0  0  0  0  0  0  0  0  0  0
    1.8924    1.0065    3.2639 C    0  0  0  0  0  0  0  0  0  0  0  0
    0.9636    1.7224    1.0571 C    0  0  0  0  0  0  0  0  0  0  0  0
    5.5487    1.1129    2.6711 C    0  0  0  0  0  0  0  0  0  0  0  0
    4.1179    4.2591    3.2242 H    0  0  0  0  0  0  0  0  0  0  0  0
    3.7389    2.7617    4.0462 H    0  0  0  0  0  0  0  0  0  0  0  0
    2.8623    4.8968    1.1548 H    0  0  0  0  0  0  0  0  0  0  0  0
    2.4870    3.6245   -0.0141 H    0  0  0  0  0  0  0  0  0  0  0  0
    4.1525    3.9135    0.4799 H    0  0  0  0  0  0  0  0  0  0  0  0
    6.1523    3.0149    3.4999 H    0  0  0  0  0  0  0  0  0  0  0  0
    5.7910    3.0678    1.7853 H    0  0  0  0  0  0  0  0  0  0  0  0
    0.8977    1.1041    3.7222 H    0  0  0  0  0  0  0  0  0  0  0  0
    1.9678   -0.0334    2.9155 H    0  0  0  0  0  0  0  0  0  0  0  0
    2.6367    1.1407    4.0495 H    0  0  0  0  0  0  0  0  0  0  0  0
   -0.0341    1.8431    1.5032 H    0  0  0  0  0  0  0  0  0  0  0  0
    1.0093    0.6880    0.6876 H    0  0  0  0  0  0  0  0  0  0  0  0
    1.0177    2.3853    0.1927 H    0  0  0  0  0  0  0  0  0  0  0  0
    4.8684    0.7071    1.9143 H    0  0  0  0  0  0  0  0  0  0  0  0
    5.2864    0.6557    3.6334 H    0  0  0  0  0  0  0  0  0  0  0  0
    6.5656    0.7912    2.4179 H    0  0  0  0  0  0  0  0  0  0  0  0
  1  2  1  0  0  0  0
  1  5  1  0  0  0  0
  1  9  1  0  0  0  0
  1 10  1  0  0  0  0
  2  3  2  0  0  0  0
  2  4  1  0  0  0  0
  3  6  1  0  0  0  0
  3  7  1  0  0  0  0
  4 11  1  0  0  0  0
  4 12  1  0  0  0  0
  4 13  1  0  0  0  0
  5  8  1  0  0  0  0
  5 14  1  0  0  0  0
  5 15  1  0  0  0  0
  6 16  1  0  0  0  0
  6 17  1  0  0  0  0
  6 18  1  0  0  0  0
  7 19  1  0  0  0  0
  7 20  1  0  0  0  0
  7 21  1  0  0  0  0
  8 22  1  0  0  0  0
  8 23  1  0  0  0  0
  8 24  1  0  0  0  0
M  END
