  2,3-DICHLORO-2-METHYLBUTANE.mol	507-45-9
  NIST    08031215123D 1   1.00000 -1116.96253
Copyright by the U.S. Sec. Commerce on behalf of U.S.A. All rights reserved.
 17 16  0  0  0  0  0  0  0  0999 V2000
   41.0103   20.0535    0.0277 C    0  0  0  0  0  0  0  0  0  0  0  0
   39.4621   20.0635    0.0387 C    0  0  0  0  0  0  0  0  0  0  0  0
   38.8433   20.6708    1.2967 C    0  0  0  0  0  0  0  0  0  0  0  0
   38.9328   20.7485   -1.2291 C    0  0  0  0  0  0  0  0  0  0  0  0
   38.8996   18.2993   -0.0622 Cl   0  0  0  0  0  0  0  0  0  0  0  0
   41.6530   21.4371   -0.0784 C    0  0  0  0  0  0  0  0  0  0  0  0
   41.6983   19.2238    1.5090 Cl   0  0  0  0  0  0  0  0  0  0  0  0
   41.3363   19.4283   -0.8060 H    0  0  0  0  0  0  0  0  0  0  0  0
   37.7525   20.6373    1.2297 H    0  0  0  0  0  0  0  0  0  0  0  0
   39.1570   20.1336    2.1934 H    0  0  0  0  0  0  0  0  0  0  0  0
   39.1465   21.7201    1.3937 H    0  0  0  0  0  0  0  0  0  0  0  0
   37.8525   20.6008   -1.3045 H    0  0  0  0  0  0  0  0  0  0  0  0
   39.3972   20.3387   -2.1316 H    0  0  0  0  0  0  0  0  0  0  0  0
   39.1262   21.8260   -1.1916 H    0  0  0  0  0  0  0  0  0  0  0  0
   42.7412   21.3364   -0.0680 H    0  0  0  0  0  0  0  0  0  0  0  0
   41.3678   21.9236   -1.0166 H    0  0  0  0  0  0  0  0  0  0  0  0
   41.3655   22.0832    0.7561 H    0  0  0  0  0  0  0  0  0  0  0  0
  1  2  1  0
  1  6  1  0
  1  7  1  0
  2  3  1  0
  2  4  1  0
  2  5  1  0
  1  8  1  0
  3  9  1  0
  3 10  1  0
  3 11  1  0
  4 12  1  0
  4 13  1  0
  4 14  1  0
  6 15  1  0
  6 16  1  0
  6 17  1  0
M  END
