
 OpenBabel10021913483D

 19 19  0  0  0  0  0  0  0  0999 V2000
    1.1690   -0.3780   -0.2096 C   0  0  0  0  0  0  0  0  0  0  0  0
    2.6611   -0.1740   -0.0506 C   0  0  0  0  0  0  0  0  0  0  0  0
    3.2776    1.1095    0.0814 C   0  0  0  0  0  0  0  0  0  0  0  0
    3.4753   -1.3300   -0.0340 C   0  0  0  0  0  0  0  0  0  0  0  0
    2.5279    2.4219    0.0798 C   0  0  0  0  0  0  0  0  0  0  0  0
    4.6741    1.1850    0.2238 C   0  0  0  0  0  0  0  0  0  0  0  0
    2.9128   -2.5524   -0.1573 O   0  0  0  0  0  0  0  0  0  0  0  0
    4.8638   -1.2167    0.1097 C   0  0  0  0  0  0  0  0  0  0  0  0
    5.4572    0.0339    0.2376 C   0  0  0  0  0  0  0  0  0  0  0  0
    0.5502    0.5301   -0.2206 H   0  0  0  0  0  0  0  0  0  0  0  0
    0.7966   -1.0072    0.6263 H   0  0  0  0  0  0  0  0  0  0  0  0
    0.9740   -0.9080   -1.1658 H   0  0  0  0  0  0  0  0  0  0  0  0
    1.4361    2.3617   -0.0316 H   0  0  0  0  0  0  0  0  0  0  0  0
    2.9013    3.0518   -0.7552 H   0  0  0  0  0  0  0  0  0  0  0  0
    2.7241    2.9527    1.0355 H   0  0  0  0  0  0  0  0  0  0  0  0
    5.1583    2.1492    0.3251 H   0  0  0  0  0  0  0  0  0  0  0  0
    3.4424   -3.3626   -0.1498 H   0  0  0  0  0  0  0  0  0  0  0  0
    5.4845   -2.1040    0.1220 H   0  0  0  0  0  0  0  0  0  0  0  0
    6.5311    0.1129    0.3483 H   0  0  0  0  0  0  0  0  0  0  0  0
  1  2  1  0  0  0  0
  1 10  1  0  0  0  0
  1 11  1  0  0  0  0
  1 12  1  0  0  0  0
  2  4  1  0  0  0  0
  3  2  2  0  0  0  0
  3  5  1  0  0  0  0
  4  7  1  0  0  0  0
  4  8  2  0  0  0  0
  5 13  1  0  0  0  0
  5 14  1  0  0  0  0
  5 15  1  0  0  0  0
  6  3  1  0  0  0  0
  6 16  1  0  0  0  0
  7 17  1  0  0  0  0
  8  9  1  0  0  0  0
  8 18  1  0  0  0  0
  9  6  2  0  0  0  0
  9 19  1  0  0  0  0
M  END
