  2,3-DICHLOROBUTANE.mol	7581-97-7
  NIST    07301310173D 1   1.00000 -1077.65012
Copyright by the U.S. Sec. Commerce on behalf of U.S.A. All rights reserved.
 14 13 0  0  0  0  0  0  0  0999 V2000
    0.5013    1.0714    0.3019 C    0  0  0  0  0  0  0  0  0  0  0  0
    2.0330    1.0151    0.3346 C    0  0  0  0  0  0  0  0  0  0  0  0
    2.6139   -0.1882    1.0648 C    0  0  0  0  0  0  0  0  0  0  0  0
    2.7555    1.1189   -1.3431 Cl   0  0  0  0  0  0  0  0  0  0  0  0
   -0.0798    2.3054   -0.3749 C    0  0  0  0  0  0  0  0  0  0  0  0
   -0.2210   -0.4330   -0.4478 Cl   0  0  0  0  0  0  0  0  0  0  0  0
    0.1773    1.0321    1.3474 H    0  0  0  0  0  0  0  0  0  0  0  0
    2.3570    1.9400    0.8236 H    0  0  0  0  0  0  0  0  0  0  0  0
    3.7021   -0.1068    1.1278 H    0  0  0  0  0  0  0  0  0  0  0  0
    2.2095   -0.2295    2.0840 H    0  0  0  0  0  0  0  0  0  0  0  0
    2.3586   -1.1184    0.5523 H    0  0  0  0  0  0  0  0  0  0  0  0
   -1.1679    2.3193   -0.2724 H    0  0  0  0  0  0  0  0  0  0  0  0
    0.3249    3.2090    0.0983 H    0  0  0  0  0  0  0  0  0  0  0  0
    0.1750    2.3262   -1.4368 H    0  0  0  0  0  0  0  0  0  0  0  0
  1  2  1  0     0  0
  1  5  1  0     0  0
  1  6  1  0     0  0
  1  7  1  0     0  0
  2  3  1  0     0  0
  2  4  1  0     0  0
  2  8  1  0     0  0
  3  9  1  0     0  0
  3 10  1  0     0  0
  3 11  1  0     0  0
  5 12  1  0     0  0
  5 13  1  0     0  0
  5 14  1  0     0  0
M  END
