  2,3-DIMETHYL-2-PENTENE.mol	10574-37-5
  NIST    06301519363D 1   1.00000  -275.16903
Copyright by the U.S. Sec. Commerce on behalf of U.S.A. All rights reserved.
 21 20  0  0  0  0  0  0  0  0999 V2000
    3.5806    3.0355    2.0935 C    0  0  0  0  0  0  0  0  0  0  0  0
    2.9865    1.9144    2.5518 C    0  0  0  0  0  0  0  0  0  0  0  0
    2.1044    1.0239    1.6872 C    0  0  0  0  0  0  0  0  0  0  0  0
    3.0997    1.4087    3.9743 C    0  0  0  0  0  0  0  0  0  0  0  0
    3.4307    3.5444    0.6754 C    0  0  0  0  0  0  0  0  0  0  0  0
    4.4696    3.9366    2.9224 C    0  0  0  0  0  0  0  0  0  0  0  0
    0.6113    1.3947    1.7566 C    0  0  0  0  0  0  0  0  0  0  0  0
    2.4283    1.0347    0.6416 H    0  0  0  0  0  0  0  0  0  0  0  0
    2.2231   -0.0154    2.0238 H    0  0  0  0  0  0  0  0  0  0  0  0
    3.5707    2.1112    4.6637 H    0  0  0  0  0  0  0  0  0  0  0  0
    3.6728    0.4707    4.0088 H    0  0  0  0  0  0  0  0  0  0  0  0
    2.1050    1.1743    4.3774 H    0  0  0  0  0  0  0  0  0  0  0  0
    4.4072    3.5889    0.1718 H    0  0  0  0  0  0  0  0  0  0  0  0
    3.0421    4.5727    0.6791 H    0  0  0  0  0  0  0  0  0  0  0  0
    2.7621    2.9449    0.0555 H    0  0  0  0  0  0  0  0  0  0  0  0
    4.6489    3.5779    3.9371 H    0  0  0  0  0  0  0  0  0  0  0  0
    4.0408    4.9465    2.9954 H    0  0  0  0  0  0  0  0  0  0  0  0
    5.4491    4.0549    2.4374 H    0  0  0  0  0  0  0  0  0  0  0  0
    0.2451    1.3859    2.7898 H    0  0  0  0  0  0  0  0  0  0  0  0
    0.4380    2.3990    1.3544 H    0  0  0  0  0  0  0  0  0  0  0  0
    0.0022    0.6877    1.1808 H    0  0  0  0  0  0  0  0  0  0  0  0
  1  2  2  0  0  0  0
  1  5  1  0  0  0  0
  1  6  1  0  0  0  0
  2  3  1  0  0  0  0
  2  4  1  0  0  0  0
  3  7  1  0  0  0  0
  3  8  1  0  0  0  0
  3  9  1  0  0  0  0
  4 10  1  0  0  0  0
  4 11  1  0  0  0  0
  4 12  1  0  0  0  0
  5 13  1  0  0  0  0
  5 14  1  0  0  0  0
  5 15  1  0  0  0  0
  6 16  1  0  0  0  0
  6 17  1  0  0  0  0
  6 18  1  0  0  0  0
  7 19  1  0  0  0  0
  7 20  1  0  0  0  0
  7 21  1  0  0  0  0
M  END
