  2,3-DIMETHYL-3-ETHYLPENTANE.mol	16747-33-4
  NIST    07011507033D 1   1.00000  -355.00891
Copyright by the U.S. Sec. Commerce on behalf of U.S.A. All rights reserved.
 29 28  0  0  0  0  0  0  0  0999 V2000
    4.2024    4.1144    1.5941 C    0  0  0  0  0  0  0  0  0  0  0  0
    2.9072    3.2449    1.8191 C    0  0  0  0  0  0  0  0  0  0  0  0
    3.0856    1.9329    0.9919 C    0  0  0  0  0  0  0  0  0  0  0  0
    1.6467    3.9737    1.2456 C    0  0  0  0  0  0  0  0  0  0  0  0
    2.7205    2.9078    3.3119 C    0  0  0  0  0  0  0  0  0  0  0  0
    4.0750    5.5987    1.9828 C    0  0  0  0  0  0  0  0  0  0  0  0
    5.4630    3.5493    2.2786 C    0  0  0  0  0  0  0  0  0  0  0  0
    2.0817    0.8018    1.2544 C    0  0  0  0  0  0  0  0  0  0  0  0
    0.8507    4.9080    2.1708 C    0  0  0  0  0  0  0  0  0  0  0  0
    4.3841    4.0905    0.5079 H    0  0  0  0  0  0  0  0  0  0  0  0
    4.0903    1.5281    1.1604 H    0  0  0  0  0  0  0  0  0  0  0  0
    3.0475    2.2022   -0.0737 H    0  0  0  0  0  0  0  0  0  0  0  0
    0.9424    3.2113    0.8905 H    0  0  0  0  0  0  0  0  0  0  0  0
    1.9504    4.5251    0.3445 H    0  0  0  0  0  0  0  0  0  0  0  0
    3.5066    2.2341    3.6701 H    0  0  0  0  0  0  0  0  0  0  0  0
    1.7603    2.4134    3.4936 H    0  0  0  0  0  0  0  0  0  0  0  0
    2.7451    3.8068    3.9372 H    0  0  0  0  0  0  0  0  0  0  0  0
    5.0246    6.1138    1.7935 H    0  0  0  0  0  0  0  0  0  0  0  0
    3.8488    5.7248    3.0489 H    0  0  0  0  0  0  0  0  0  0  0  0
    3.3046    6.1201    1.4081 H    0  0  0  0  0  0  0  0  0  0  0  0
    6.3496    4.0966    1.9374 H    0  0  0  0  0  0  0  0  0  0  0  0
    5.4117    3.6638    3.3678 H    0  0  0  0  0  0  0  0  0  0  0  0
    5.6333    2.4898    2.0638 H    0  0  0  0  0  0  0  0  0  0  0  0
    2.2595   -0.0270    0.5593 H    0  0  0  0  0  0  0  0  0  0  0  0
    2.1756    0.4012    2.2696 H    0  0  0  0  0  0  0  0  0  0  0  0
    1.0417    1.1200    1.1193 H    0  0  0  0  0  0  0  0  0  0  0  0
    0.0177    5.3567    1.6163 H    0  0  0  0  0  0  0  0  0  0  0  0
    0.4192    4.3623    3.0167 H    0  0  0  0  0  0  0  0  0  0  0  0
    1.4506    5.7258    2.5786 H    0  0  0  0  0  0  0  0  0  0  0  0
  1  2  1  0  0  0  0
  1  6  1  0  0  0  0
  1  7  1  0  0  0  0
  1 10  1  0  0  0  0
  2  3  1  0  0  0  0
  2  4  1  0  0  0  0
  2  5  1  0  0  0  0
  3  8  1  0  0  0  0
  3 11  1  0  0  0  0
  3 12  1  0  0  0  0
  4  9  1  0  0  0  0
  4 13  1  0  0  0  0
  4 14  1  0  0  0  0
  5 15  1  0  0  0  0
  5 16  1  0  0  0  0
  5 17  1  0  0  0  0
  6 18  1  0  0  0  0
  6 19  1  0  0  0  0
  6 20  1  0  0  0  0
  7 21  1  0  0  0  0
  7 22  1  0  0  0  0
  7 23  1  0  0  0  0
  8 24  1  0  0  0  0
  8 25  1  0  0  0  0
  8 26  1  0  0  0  0
  9 27  1  0  0  0  0
  9 28  1  0  0  0  0
  9 29  1  0  0  0  0
M  END
