  2,3-DIMETHYL-2-BUTENE.mol	563-79-1
  NIST    06301517503D 1   1.00000  -235.85667
Copyright by the U.S. Sec. Commerce on behalf of U.S.A. All rights reserved.
 18 17  0  0  0  0  0  0  0  0999 V2000
    1.9495    2.2037    2.0107 C    0  0  0  0  0  0  0  0  0  0  0  0
    3.2062    2.1192    1.5261 C    0  0  0  0  0  0  0  0  0  0  0  0
    4.1888    3.2705    1.4937 C    0  0  0  0  0  0  0  0  0  0  0  0
    3.8155    0.8610    0.9451 C    0  0  0  0  0  0  0  0  0  0  0  0
    0.9668    1.0526    2.0428 C    0  0  0  0  0  0  0  0  0  0  0  0
    1.3403    3.4619    2.5920 C    0  0  0  0  0  0  0  0  0  0  0  0
    4.5118    3.4700    0.4619 H    0  0  0  0  0  0  0  0  0  0  0  0
    3.8022    4.2044    1.9034 H    0  0  0  0  0  0  0  0  0  0  0  0
    5.0990    3.0140    2.0544 H    0  0  0  0  0  0  0  0  0  0  0  0
    3.1474   -0.0010    0.9363 H    0  0  0  0  0  0  0  0  0  0  0  0
    4.1436    1.0366   -0.0894 H    0  0  0  0  0  0  0  0  0  0  0  0
    4.7167    0.5765    1.5070 H    0  0  0  0  0  0  0  0  0  0  0  0
    0.6438    0.8526    3.0745 H    0  0  0  0  0  0  0  0  0  0  0  0
    0.0565    1.3095    1.4823 H    0  0  0  0  0  0  0  0  0  0  0  0
    1.3531    0.1188    1.6326 H    0  0  0  0  0  0  0  0  0  0  0  0
    1.0109    3.2856    3.6260 H    0  0  0  0  0  0  0  0  0  0  0  0
    2.0089    4.3235    2.6023 H    0  0  0  0  0  0  0  0  0  0  0  0
    0.4399    3.7474    2.0293 H    0  0  0  0  0  0  0  0  0  0  0  0
  1  2  2  0  0  0  0
  1  5  1  0  0  0  0
  1  6  1  0  0  0  0
  2  3  1  0  0  0  0
  2  4  1  0  0  0  0
  3  7  1  0  0  0  0
  3  8  1  0  0  0  0
  3  9  1  0  0  0  0
  4 10  1  0  0  0  0
  4 11  1  0  0  0  0
  4 12  1  0  0  0  0
  5 13  1  0  0  0  0
  5 14  1  0  0  0  0
  5 15  1  0  0  0  0
  6 16  1  0  0  0  0
  6 17  1  0  0  0  0
  6 18  1  0  0  0  0
M  END
