  2,3-DIMETHYL-TRANS-3-HEXENE.mol	66225-30-7
  NIST    07081521023D 1   1.00000  -314.48067
Copyright by the U.S. Sec. Commerce on behalf of U.S.A. All rights reserved.
 24 23  0  0  0  0  0  0  0  0999 V2000
    0.8313    0.7019   -0.8131 C    0  0  0  0  0  0  0  0  0  0  0  0
    2.1820    0.3034   -0.1795 C    0  0  0  0  0  0  0  0  0  0  0  0
    3.1841   -0.1269   -1.2533 C    0  0  0  0  0  0  0  0  0  0  0  0
    4.1556    0.6888   -1.6919 C    0  0  0  0  0  0  0  0  0  0  0  0
    5.1928    0.4385   -2.7562 C    0  0  0  0  0  0  0  0  0  0  0  0
    5.0681    1.4174   -3.9375 C    0  0  0  0  0  0  0  0  0  0  0  0
    2.9686   -1.5347   -1.7618 C    0  0  0  0  0  0  0  0  0  0  0  0
    2.6725    1.4170    0.7570 C    0  0  0  0  0  0  0  0  0  0  0  0
    0.0869    0.9210   -0.0379 H    0  0  0  0  0  0  0  0  0  0  0  0
    0.4242   -0.0917   -1.4489 H    0  0  0  0  0  0  0  0  0  0  0  0
    0.9509    1.5985   -1.4328 H    0  0  0  0  0  0  0  0  0  0  0  0
    1.9946   -0.5836    0.4461 H    0  0  0  0  0  0  0  0  0  0  0  0
    4.2248    1.6818   -1.2473 H    0  0  0  0  0  0  0  0  0  0  0  0
    5.1460   -0.5895   -3.1300 H    0  0  0  0  0  0  0  0  0  0  0  0
    6.1928    0.5546   -2.3111 H    0  0  0  0  0  0  0  0  0  0  0  0
    4.1054    1.2957   -4.4468 H    0  0  0  0  0  0  0  0  0  0  0  0
    5.8659    1.2551   -4.6716 H    0  0  0  0  0  0  0  0  0  0  0  0
    5.1332    2.4581   -3.5974 H    0  0  0  0  0  0  0  0  0  0  0  0
    1.9286   -1.6883   -2.0779 H    0  0  0  0  0  0  0  0  0  0  0  0
    3.1598   -2.2660   -0.9637 H    0  0  0  0  0  0  0  0  0  0  0  0
    3.6096   -1.7921   -2.6078 H    0  0  0  0  0  0  0  0  0  0  0  0
    2.7760    2.3742    0.2324 H    0  0  0  0  0  0  0  0  0  0  0  0
    3.6422    1.1696    1.2022 H    0  0  0  0  0  0  0  0  0  0  0  0
    1.9523    1.5704    1.5689 H    0  0  0  0  0  0  0  0  0  0  0  0
  1  2  1  0  0  0  0
  1  9  1  0  0  0  0
  1 10  1  0  0  0  0
  1 11  1  0  0  0  0
  2  8  1  0  0  0  0
  2  3  1  0  0  0  0
  2 12  1  0  0  0  0
  3  7  1  0  0  0  0
  3  4  2  0  0  0  0
  4  5  1  0  0  0  0
  4 13  1  0  0  0  0
  5  6  1  0  0  0  0
  5 14  1  0  0  0  0
  5 15  1  0  0  0  0
  6 16  1  0  0  0  0
  6 17  1  0  0  0  0
  6 18  1  0  0  0  0
  7 19  1  0  0  0  0
  7 20  1  0  0  0  0
  7 21  1  0  0  0  0
  8 22  1  0  0  0  0
  8 23  1  0  0  0  0
  8 24  1  0  0  0  0
M  END
