  2,3-DIMETHYL-1-BUTENE.mol	563-78-0
  NIST    06301516003D 1   1.00000  -235.85189
Copyright by the U.S. Sec. Commerce on behalf of U.S.A. All rights reserved.
 18 17  0  0  0  0  0  0  0  0999 V2000
    2.9315    2.0547    2.4942 C    0  0  0  0  0  0  0  0  0  0  0  0
    1.6031    2.3762    1.8169 C    0  0  0  0  0  0  0  0  0  0  0  0
    0.7851    3.3896    2.6471 C    0  0  0  0  0  0  0  0  0  0  0  0
    1.7334    2.8647    0.3683 C    0  0  0  0  0  0  0  0  0  0  0  0
    2.8427    1.2290    3.7577 C    0  0  0  0  0  0  0  0  0  0  0  0
    4.1164    2.4592    2.0241 C    0  0  0  0  0  0  0  0  0  0  0  0
    1.0256    1.4378    1.7966 H    0  0  0  0  0  0  0  0  0  0  0  0
   -0.1917    3.5680    2.1823 H    0  0  0  0  0  0  0  0  0  0  0  0
    1.3123    4.3492    2.7079 H    0  0  0  0  0  0  0  0  0  0  0  0
    0.6061    3.0389    3.6688 H    0  0  0  0  0  0  0  0  0  0  0  0
    2.2329    3.8396    0.3166 H    0  0  0  0  0  0  0  0  0  0  0  0
    0.7412    2.9817   -0.0822 H    0  0  0  0  0  0  0  0  0  0  0  0
    2.3047    2.1592   -0.2444 H    0  0  0  0  0  0  0  0  0  0  0  0
    2.3409    0.2704    3.5659 H    0  0  0  0  0  0  0  0  0  0  0  0
    2.2601    1.7348    4.5385 H    0  0  0  0  0  0  0  0  0  0  0  0
    3.8346    1.0158    4.1678 H    0  0  0  0  0  0  0  0  0  0  0  0
    4.2191    3.0417    1.1140 H    0  0  0  0  0  0  0  0  0  0  0  0
    5.0407    2.2164    2.5429 H    0  0  0  0  0  0  0  0  0  0  0  0
  1  2  1  0  0  0  0
  1  5  1  0  0  0  0
  1  6  2  0  0  0  0
  2  3  1  0  0  0  0
  2  4  1  0  0  0  0
  2  7  1  0  0  0  0
  3  8  1  0  0  0  0
  3  9  1  0  0  0  0
  3 10  1  0  0  0  0
  4 11  1  0  0  0  0
  4 12  1  0  0  0  0
  4 13  1  0  0  0  0
  5 14  1  0  0  0  0
  5 15  1  0  0  0  0
  5 16  1  0  0  0  0
  6 17  1  0  0  0  0
  6 18  1  0  0  0  0
M  END
