  2,3-DIMETHYL-2,3-DIPHENYLBUTANE.mol	1889-67-4
  NIST    07021512593D 1   1.00000  -699.16062
Copyright by the U.S. Sec. Commerce on behalf of U.S.A. All rights reserved.
 40 41  0  0  0  0  0  0  0  0999 V2000
    4.4686    4.4417    1.9309 C    0  0  0  0  0  0  0  0  0  0  0  0
    5.0199    4.7186    3.4276 C    0  0  0  0  0  0  0  0  0  0  0  0
    5.5695    3.4176    4.0629 C    0  0  0  0  0  0  0  0  0  0  0  0
    3.8705    5.1687    4.3635 C    0  0  0  0  0  0  0  0  0  0  0  0
    6.1275    5.7987    3.4058 C    0  0  0  0  0  0  0  0  0  0  0  0
    3.9187    5.7426    1.2956 C    0  0  0  0  0  0  0  0  0  0  0  0
    5.6182    3.9919    0.9951 C    0  0  0  0  0  0  0  0  0  0  0  0
    3.3615    3.3612    1.9527 C    0  0  0  0  0  0  0  0  0  0  0  0
    7.4851    5.4622    3.2630 C    0  0  0  0  0  0  0  0  0  0  0  0
    5.8275    7.1658    3.5404 C    0  0  0  0  0  0  0  0  0  0  0  0
    3.6621    1.9942    1.8179 C    0  0  0  0  0  0  0  0  0  0  0  0
    2.0037    3.6969    2.0957 C    0  0  0  0  0  0  0  0  0  0  0  0
    8.4869    6.4341    3.2487 C    0  0  0  0  0  0  0  0  0  0  0  0
    6.8237    8.1432    3.5265 C    0  0  0  0  0  0  0  0  0  0  0  0
    2.6663    1.0163    1.8318 C    0  0  0  0  0  0  0  0  0  0  0  0
    1.0024    2.7245    2.1099 C    0  0  0  0  0  0  0  0  0  0  0  0
    8.1627    7.7837    3.3802 C    0  0  0  0  0  0  0  0  0  0  0  0
    1.3272    1.3752    1.9783 C    0  0  0  0  0  0  0  0  0  0  0  0
    6.3467    2.9303    3.4689 H    0  0  0  0  0  0  0  0  0  0  0  0
    5.9987    3.6381    5.0465 H    0  0  0  0  0  0  0  0  0  0  0  0
    4.7641    2.6920    4.2017 H    0  0  0  0  0  0  0  0  0  0  0  0
    3.1423    4.3631    4.4892 H    0  0  0  0  0  0  0  0  0  0  0  0
    4.2734    5.4165    5.3517 H    0  0  0  0  0  0  0  0  0  0  0  0
    3.3266    6.0452    4.0031 H    0  0  0  0  0  0  0  0  0  0  0  0
    3.4905    5.5220    0.3116 H    0  0  0  0  0  0  0  0  0  0  0  0
    3.1407    6.2291    1.8890 H    0  0  0  0  0  0  0  0  0  0  0  0
    4.7238    6.4687    1.1577 H    0  0  0  0  0  0  0  0  0  0  0  0
    6.1628    3.1160    1.3561 H    0  0  0  0  0  0  0  0  0  0  0  0
    5.2153    3.7430    0.0072 H    0  0  0  0  0  0  0  0  0  0  0  0
    6.3458    4.7979    0.8688 H    0  0  0  0  0  0  0  0  0  0  0  0
    7.7792    4.4234    3.1628 H    0  0  0  0  0  0  0  0  0  0  0  0
    4.7988    7.4860    3.6624 H    0  0  0  0  0  0  0  0  0  0  0  0
    4.6909    1.6745    1.6959 H    0  0  0  0  0  0  0  0  0  0  0  0
    1.7091    4.7356    2.1960 H    0  0  0  0  0  0  0  0  0  0  0  0
    9.5247    6.1297    3.1382 H    0  0  0  0  0  0  0  0  0  0  0  0
    6.5472    9.1890    3.6354 H    0  0  0  0  0  0  0  0  0  0  0  0
    2.9433   -0.0293    1.7227 H    0  0  0  0  0  0  0  0  0  0  0  0
   -0.0355    3.0285    2.2206 H    0  0  0  0  0  0  0  0  0  0  0  0
    8.9409    8.5422    3.3728 H    0  0  0  0  0  0  0  0  0  0  0  0
    0.5493    0.6163    1.9856 H    0  0  0  0  0  0  0  0  0  0  0  0
  1  2  1  0  0  0  0
  1  6  1  0  0  0  0
  1  7  1  0  0  0  0
  1  8  1  0  0  0  0
  2  3  1  0  0  0  0
  2  4  1  0  0  0  0
  2  5  1  0  0  0  0
  3 19  1  0  0  0  0
  3 20  1  0  0  0  0
  3 21  1  0  0  0  0
  4 22  1  0  0  0  0
  4 23  1  0  0  0  0
  4 24  1  0  0  0  0
  5 10  1  0  0  0  0
  6 25  1  0  0  0  0
  6 26  1  0  0  0  0
  6 27  1  0  0  0  0
  7 28  1  0  0  0  0
  7 29  1  0  0  0  0
  7 30  1  0  0  0  0
  8 11  2  0  0  0  0
  9  5  2  0  0  0  0
  9 31  1  0  0  0  0
 10 14  2  0  0  0  0
 10 32  1  0  0  0  0
 11 15  1  0  0  0  0
 11 33  1  0  0  0  0
 12  8  1  0  0  0  0
 12 34  1  0  0  0  0
 13  9  1  0  0  0  0
 13 35  1  0  0  0  0
 14 17  1  0  0  0  0
 14 36  1  0  0  0  0
 15 18  2  0  0  0  0
 15 37  1  0  0  0  0
 16 12  2  0  0  0  0
 16 38  1  0  0  0  0
 17 13  2  0  0  0  0
 17 39  1  0  0  0  0
 18 16  1  0  0  0  0
 18 40  1  0  0  0  0
M  END
