  2,4,4-TRIMETHYL-2-PENTENE.mol	107-40-4
  NIST    06301523193D 1   1.00000  -314.47788
Copyright by the U.S. Sec. Commerce on behalf of U.S.A. All rights reserved.
 24 23  0  0  0  0  0  0  0  0999 V2000
    3.1431    1.3708    2.5327 C    0  0  0  0  0  0  0  0  0  0  0  0
    2.0087    1.7637    1.9301 C    0  0  0  0  0  0  0  0  0  0  0  0
    0.7051    1.0597    2.2371 C    0  0  0  0  0  0  0  0  0  0  0  0
    1.8626    2.8844    0.9274 C    0  0  0  0  0  0  0  0  0  0  0  0
    4.5790    1.8922    2.4164 C    0  0  0  0  0  0  0  0  0  0  0  0
    5.1273    1.7353    0.9792 C    0  0  0  0  0  0  0  0  0  0  0  0
    5.4632    1.0415    3.3554 C    0  0  0  0  0  0  0  0  0  0  0  0
    4.6872    3.3665    2.8704 C    0  0  0  0  0  0  0  0  0  0  0  0
    3.0378    0.5364    3.2283 H    0  0  0  0  0  0  0  0  0  0  0  0
   -0.0389    1.7624    2.6389 H    0  0  0  0  0  0  0  0  0  0  0  0
    0.2636    0.6293    1.3269 H    0  0  0  0  0  0  0  0  0  0  0  0
    0.8352    0.2522    2.9643 H    0  0  0  0  0  0  0  0  0  0  0  0
    1.1457    3.6335    1.2921 H    0  0  0  0  0  0  0  0  0  0  0  0
    1.4522    2.5011   -0.0176 H    0  0  0  0  0  0  0  0  0  0  0  0
    2.7960    3.3992    0.7006 H    0  0  0  0  0  0  0  0  0  0  0  0
    4.5676    2.3319    0.2528 H    0  0  0  0  0  0  0  0  0  0  0  0
    6.1770    2.0532    0.9331 H    0  0  0  0  0  0  0  0  0  0  0  0
    5.0773    0.6889    0.6569 H    0  0  0  0  0  0  0  0  0  0  0  0
    6.5083    1.3700    3.3126 H    0  0  0  0  0  0  0  0  0  0  0  0
    5.1270    1.1231    4.3964 H    0  0  0  0  0  0  0  0  0  0  0  0
    5.4314   -0.0183    3.0746 H    0  0  0  0  0  0  0  0  0  0  0  0
    4.3189    3.4853    3.8959 H    0  0  0  0  0  0  0  0  0  0  0  0
    5.7331    3.6988    2.8465 H    0  0  0  0  0  0  0  0  0  0  0  0
    4.1099    4.0415    2.2318 H    0  0  0  0  0  0  0  0  0  0  0  0
  1  2  2  0  0  0  0
  1  5  1  0  0  0  0
  1  9  1  0  0  0  0
  2  3  1  0  0  0  0
  2  4  1  0  0  0  0
  3 10  1  0  0  0  0
  3 11  1  0  0  0  0
  3 12  1  0  0  0  0
  4 13  1  0  0  0  0
  4 14  1  0  0  0  0
  4 15  1  0  0  0  0
  5  6  1  0  0  0  0
  5  7  1  0  0  0  0
  5  8  1  0  0  0  0
  6 16  1  0  0  0  0
  6 17  1  0  0  0  0
  6 18  1  0  0  0  0
  7 19  1  0  0  0  0
  7 20  1  0  0  0  0
  7 21  1  0  0  0  0
  8 22  1  0  0  0  0
  8 23  1  0  0  0  0
  8 24  1  0  0  0  0
M  END
