  2,4,4-TRIMETHYLHEPTANE.mol	4032-92-2
  NIST    08031423503D 1   1.00000    -0.08945
Copyright by the U.S. Sec. Commerce on behalf of U.S.A. All rights reserved.
 32 31  0  0  0  0  0  0  0  0999 V2000
   -2.5520   -0.6676   -2.4107 C    0  0  0  0  0  0  0  0  0  0  0  0
   -1.0320   -0.7587   -2.2316 C    0  0  0  0  0  0  0  0  0  0  0  0
   -0.4524    0.4792   -1.5299 C    0  0  0  0  0  0  0  0  0  0  0  0
    1.0667    0.4737   -1.2135 C    0  0  0  0  0  0  0  0  0  0  0  0
    1.8786    0.2278   -2.5031 C    0  0  0  0  0  0  0  0  0  0  0  0
    1.4463    1.8715   -0.6787 C    0  0  0  0  0  0  0  0  0  0  0  0
    1.4781   -0.6175   -0.1819 C    0  0  0  0  0  0  0  0  0  0  0  0
    0.8372   -0.5856    1.2327 C    0  0  0  0  0  0  0  0  0  0  0  0
   -0.3840   -1.5121    1.3596 C    0  0  0  0  0  0  0  0  0  0  0  0
    1.8788   -0.9546    2.3028 C    0  0  0  0  0  0  0  0  0  0  0  0
   -2.9469   -1.5470   -2.9323 H    0  0  0  0  0  0  0  0  0  0  0  0
   -3.0636   -0.5970   -1.4426 H    0  0  0  0  0  0  0  0  0  0  0  0
   -2.8301    0.2189   -2.9944 H    0  0  0  0  0  0  0  0  0  0  0  0
   -0.5633   -0.8810   -3.2162 H    0  0  0  0  0  0  0  0  0  0  0  0
   -0.7904   -1.6666   -1.6644 H    0  0  0  0  0  0  0  0  0  0  0  0
   -1.0066    0.6536   -0.5966 H    0  0  0  0  0  0  0  0  0  0  0  0
   -0.6609    1.3565   -2.1610 H    0  0  0  0  0  0  0  0  0  0  0  0
    2.9526    0.3480   -2.3151 H    0  0  0  0  0  0  0  0  0  0  0  0
    1.7262   -0.7830   -2.8976 H    0  0  0  0  0  0  0  0  0  0  0  0
    1.5971    0.9408   -3.2884 H    0  0  0  0  0  0  0  0  0  0  0  0
    2.5068    1.9127   -0.4002 H    0  0  0  0  0  0  0  0  0  0  0  0
    0.8579    2.1522    0.2022 H    0  0  0  0  0  0  0  0  0  0  0  0
    1.2730    2.6382   -1.4439 H    0  0  0  0  0  0  0  0  0  0  0  0
    1.3105   -1.6106   -0.6224 H    0  0  0  0  0  0  0  0  0  0  0  0
    2.5682   -0.5326   -0.0690 H    0  0  0  0  0  0  0  0  0  0  0  0
    0.5015    0.4381    1.4471 H    0  0  0  0  0  0  0  0  0  0  0  0
   -0.8136   -1.4571    2.3674 H    0  0  0  0  0  0  0  0  0  0  0  0
   -1.1768   -1.2585    0.6491 H    0  0  0  0  0  0  0  0  0  0  0  0
   -0.0978   -2.5569    1.1793 H    0  0  0  0  0  0  0  0  0  0  0  0
    1.4402   -0.9422    3.3080 H    0  0  0  0  0  0  0  0  0  0  0  0
    2.7240   -0.2561    2.2951 H    0  0  0  0  0  0  0  0  0  0  0  0
    2.2794   -1.9621    2.1283 H    0  0  0  0  0  0  0  0  0  0  0  0
  1  2  1  0  0  0  0
  1 11  1  0  0  0  0
  1 12  1  0  0  0  0
  1 13  1  0  0  0  0
  2  3  1  0  0  0  0
  2 14  1  0  0  0  0
  2 15  1  0  0  0  0
  3  4  1  0  0  0  0
  3 16  1  0  0  0  0
  3 17  1  0  0  0  0
  4  5  1  0  0  0  0
  4  6  1  0  0  0  0
  4  7  1  0  0  0  0
  5 18  1  0  0  0  0
  5 19  1  0  0  0  0
  5 20  1  0  0  0  0
  6 21  1  0  0  0  0
  6 22  1  0  0  0  0
  6 23  1  0  0  0  0
  7  8  1  0  0  0  0
  7 24  1  0  0  0  0
  7 25  1  0  0  0  0
  8  9  1  0  0  0  0
  8 10  1  0  0  0  0
  8 26  1  0  0  0  0
  9 27  1  0  0  0  0
  9 28  1  0  0  0  0
  9 29  1  0  0  0  0
 10 30  1  0  0  0  0
 10 31  1  0  0  0  0
 10 32  1  0  0  0  0
M  END
