  2,4-XYLENOL.mol	105-67-9
  NIST    07011511353D 1   1.00000  -386.10095
Copyright by the U.S. Sec. Commerce on behalf of U.S.A. All rights reserved.
 19 19  0  0  0  0  0  0  0  0999 V2000
    3.3305    5.4007    0.6785 C    0  0  0  0  0  0  0  0  0  0  0  0
    3.3284    3.8983    0.8051 C    0  0  0  0  0  0  0  0  0  0  0  0
    4.5439    3.2009    0.9318 C    0  0  0  0  0  0  0  0  0  0  0  0
    2.1495    3.1535    0.8021 C    0  0  0  0  0  0  0  0  0  0  0  0
    5.6926    3.9536    0.9329 O    0  0  0  0  0  0  0  0  0  0  0  0
    4.5572    1.8123    1.0497 C    0  0  0  0  0  0  0  0  0  0  0  0
    2.1315    1.7545    0.9188 C    0  0  0  0  0  0  0  0  0  0  0  0
    3.3569    1.0977    1.0427 C    0  0  0  0  0  0  0  0  0  0  0  0
    0.8246    0.9949    0.9066 C    0  0  0  0  0  0  0  0  0  0  0  0
    2.3105    5.7867    0.5886 H    0  0  0  0  0  0  0  0  0  0  0  0
    3.8025    5.8743    1.5478 H    0  0  0  0  0  0  0  0  0  0  0  0
    3.9006    5.7264   -0.2000 H    0  0  0  0  0  0  0  0  0  0  0  0
    1.2051    3.6870    0.7047 H    0  0  0  0  0  0  0  0  0  0  0  0
    6.4532    3.3595    1.0267 H    0  0  0  0  0  0  0  0  0  0  0  0
    5.5057    1.2858    1.1478 H    0  0  0  0  0  0  0  0  0  0  0  0
    3.3830    0.0144    1.1355 H    0  0  0  0  0  0  0  0  0  0  0  0
    0.2829    1.1360   -0.0376 H    0  0  0  0  0  0  0  0  0  0  0  0
    0.9884   -0.0800    1.0352 H    0  0  0  0  0  0  0  0  0  0  0  0
    0.1561    1.3266    1.7113 H    0  0  0  0  0  0  0  0  0  0  0  0
  1  2  1  0  0  0  0
  1 10  1  0  0  0  0
  1 11  1  0  0  0  0
  1 12  1  0  0  0  0
  2  3  2  0  0  0  0
  3  5  1  0  0  0  0
  3  6  1  0  0  0  0
  4  2  1  0  0  0  0
  4 13  1  0  0  0  0
  5 14  1  0  0  0  0
  6  8  2  0  0  0  0
  6 15  1  0  0  0  0
  7  4  2  0  0  0  0
  7  9  1  0  0  0  0
  8  7  1  0  0  0  0
  8 16  1  0  0  0  0
  9 17  1  0  0  0  0
  9 18  1  0  0  0  0
  9 19  1  0  0  0  0
M  END
