  2,4-DIMETHYL-1,3-PENTADIENE.mol	1000-86-8
  NIST    06301518123D 1   1.00000  -273.94202
Copyright by the U.S. Sec. Commerce on behalf of U.S.A. All rights reserved.
 19 18  0  0  0  0  0  0  0  0999 V2000
    3.0877    1.3165    0.6864 C    0  0  0  0  0  0  0  0  0  0  0  0
    4.4267    1.9185    0.8460 C    0  0  0  0  0  0  0  0  0  0  0  0
    1.8774    1.8653    0.9092 C    0  0  0  0  0  0  0  0  0  0  0  0
    5.4648    1.0164    1.4786 C    0  0  0  0  0  0  0  0  0  0  0  0
    4.7433    3.1546    0.4283 C    0  0  0  0  0  0  0  0  0  0  0  0
    0.6213    1.0613    0.6746 C    0  0  0  0  0  0  0  0  0  0  0  0
    1.6461    3.2654    1.4198 C    0  0  0  0  0  0  0  0  0  0  0  0
    3.1029    0.2659    0.3875 H    0  0  0  0  0  0  0  0  0  0  0  0
    5.1763    0.7358    2.5000 H    0  0  0  0  0  0  0  0  0  0  0  0
    5.5654    0.0796    0.9135 H    0  0  0  0  0  0  0  0  0  0  0  0
    6.4478    1.4956    1.5182 H    0  0  0  0  0  0  0  0  0  0  0  0
    5.7445    3.5572    0.5621 H    0  0  0  0  0  0  0  0  0  0  0  0
    4.0265    3.7921   -0.0796 H    0  0  0  0  0  0  0  0  0  0  0  0
   -0.0333    1.5587   -0.0552 H    0  0  0  0  0  0  0  0  0  0  0  0
    0.8398    0.0558    0.3017 H    0  0  0  0  0  0  0  0  0  0  0  0
    0.0349    0.9653    1.5995 H    0  0  0  0  0  0  0  0  0  0  0  0
    2.5577    3.7185    1.8159 H    0  0  0  0  0  0  0  0  0  0  0  0
    1.2635    3.9210    0.6243 H    0  0  0  0  0  0  0  0  0  0  0  0
    0.8824    3.2608    2.2092 H    0  0  0  0  0  0  0  0  0  0  0  0
  1  2  1  0  0  0  0
  1  3  2  0  0  0  0
  1  8  1  0  0  0  0
  2  4  1  0  0  0  0
  2  5  2  0  0  0  0
  3  6  1  0  0  0  0
  3  7  1  0  0  0  0
  4  9  1  0  0  0  0
  4 10  1  0  0  0  0
  4 11  1  0  0  0  0
  5 12  1  0  0  0  0
  5 13  1  0  0  0  0
  6 14  1  0  0  0  0
  6 15  1  0  0  0  0
  6 16  1  0  0  0  0
  7 17  1  0  0  0  0
  7 18  1  0  0  0  0
  7 19  1  0  0  0  0
M  END
