  2,4-DIMETHYL-CIS-3-HEXENE.mol	37549-89-6
  NIST    08031215083D 1   1.00000  -314.48308
Copyright by the U.S. Sec. Commerce on behalf of U.S.A. All rights reserved.
 24 23  0  0  0  0  0  0  0  0999 V2000
    0.3690   19.8000   -0.0742 C    0  0  0  0  0  0  0  0  0  0  0  0
    0.9646   20.8918    0.8352 C    0  0  0  0  0  0  0  0  0  0  0  0
    0.9679   22.2697    0.2001 C    0  0  0  0  0  0  0  0  0  0  0  0
    2.0478   22.8516   -0.3452 C    0  0  0  0  0  0  0  0  0  0  0  0
   -0.3670   22.9805    0.2029 C    0  0  0  0  0  0  0  0  0  0  0  0
    3.4590   22.3258   -0.4572 C    0  0  0  0  0  0  0  0  0  0  0  0
    3.8657   22.1851   -1.9373 C    0  0  0  0  0  0  0  0  0  0  0  0
    4.4406   23.2494    0.2899 C    0  0  0  0  0  0  0  0  0  0  0  0
    0.3562   18.8306    0.4374 H    0  0  0  0  0  0  0  0  0  0  0  0
   -0.6608   20.0342   -0.3667 H    0  0  0  0  0  0  0  0  0  0  0  0
    0.9585   19.6926   -0.9915 H    0  0  0  0  0  0  0  0  0  0  0  0
    1.9777   20.5959    1.1260 H    0  0  0  0  0  0  0  0  0  0  0  0
    0.3797   20.9323    1.7656 H    0  0  0  0  0  0  0  0  0  0  0  0
    1.9156   23.8469   -0.7783 H    0  0  0  0  0  0  0  0  0  0  0  0
   -0.7220   23.1482    1.2298 H    0  0  0  0  0  0  0  0  0  0  0  0
   -0.3120   23.9519   -0.2986 H    0  0  0  0  0  0  0  0  0  0  0  0
   -1.1430   22.3876   -0.3001 H    0  0  0  0  0  0  0  0  0  0  0  0
    3.5196   21.3306   -0.0003 H    0  0  0  0  0  0  0  0  0  0  0  0
    4.8929   21.8112   -2.0290 H    0  0  0  0  0  0  0  0  0  0  0  0
    3.2008   21.4940   -2.4670 H    0  0  0  0  0  0  0  0  0  0  0  0
    3.8166   23.1542   -2.4504 H    0  0  0  0  0  0  0  0  0  0  0  0
    5.4706   22.8820    0.2036 H    0  0  0  0  0  0  0  0  0  0  0  0
    4.1889   23.3169    1.3539 H    0  0  0  0  0  0  0  0  0  0  0  0
    4.4134   24.2656   -0.1243 H    0  0  0  0  0  0  0  0  0  0  0  0
  1  2  1  0
  2  3  1  0
  3  4  2  0
  3  5  1  0
  4  6  1  0
  6  7  1  0
  6  8  1  0
  1  9  1  0
  1 10  1  0
  1 11  1  0
  2 12  1  0
  2 13  1  0
  4 14  1  0
  5 15  1  0
  5 16  1  0
  5 17  1  0
  6 18  1  0
  7 19  1  0
  7 20  1  0
  7 21  1  0
  8 22  1  0
  8 23  1  0
  8 24  1  0
M  END
