  2,4-DINITROTOLUENE.mol	121-14-2
  NIST    08011311463D 1   1.00000     0.00000
Copyright by the U.S. Sec. Commerce on behalf of U.S.A. All rights reserved.
 19 19  0  0  0  0  0  0  0  0999 V2000
    6.8771    4.0877   -0.9479 O    0  0  0  0  0  0  0  0  0  0  0  0
    7.2798    2.9251   -0.9487 N    0  0  0  0  0  0  0  0  0  0  0  0
    8.4455    2.5922   -1.1498 O    0  0  0  0  0  0  0  0  0  0  0  0
    6.3018    1.8500   -0.6780 C    0  0  0  0  0  0  0  0  0  0  0  0
    6.8472    0.6151   -0.3341 C    0  0  0  0  0  0  0  0  0  0  0  0
    4.9108    2.0706   -0.7651 C    0  0  0  0  0  0  0  0  0  0  0  0
    5.9847   -0.4331   -0.0538 C    0  0  0  0  0  0  0  0  0  0  0  0
    4.2564    3.3746   -1.1455 C    0  0  0  0  0  0  0  0  0  0  0  0
    4.0910    0.9636   -0.4837 C    0  0  0  0  0  0  0  0  0  0  0  0
    6.5475   -1.7406    0.3235 N    0  0  0  0  0  0  0  0  0  0  0  0
    4.6026   -0.2775   -0.1248 C    0  0  0  0  0  0  0  0  0  0  0  0
    5.7529   -2.6509    0.5533 O    0  0  0  0  0  0  0  0  0  0  0  0
    7.7708   -1.8372    0.3847 O    0  0  0  0  0  0  0  0  0  0  0  0
    7.9193    0.4814   -0.2889 H    0  0  0  0  0  0  0  0  0  0  0  0
    3.1815    3.2224   -1.2773 H    0  0  0  0  0  0  0  0  0  0  0  0
    4.4143    4.1351   -0.3754 H    0  0  0  0  0  0  0  0  0  0  0  0
    4.6720    3.7856   -2.0695 H    0  0  0  0  0  0  0  0  0  0  0  0
    3.0148    1.0903   -0.5501 H    0  0  0  0  0  0  0  0  0  0  0  0
    3.9556   -1.1178    0.0952 H    0  0  0  0  0  0  0  0  0  0  0  0
  1  2  2  0
  2  3  2  0
  2  4  1  0
  6  8  1  0
  7 10  1  0
 10 12  2  0
 10 13  2  0
  4  5  1  0
  5  7  2  0
  7 11  1  0
 11  9  2  0
  9  6  1  0
  4  6  2  0
  5 14  1  0
  8 15  1  0
  8 16  1  0
  8 17  1  0
  9 18  1  0
 11 19  1  0
M  END
