  2,4-DIMETHYL-TRANS-3-HEXENE.mol	61847-78-7
  NIST    07061521363D 1   1.00000  -314.48331
Copyright by the U.S. Sec. Commerce on behalf of U.S.A. All rights reserved.
 24 23  0  0  0  0  0  0  0  0999 V2000
    0.7850   18.9564   -0.7559 C    0  0  0  0  0  0  0  0  0  0  0  0
    0.8053   19.7873    0.5403 C    0  0  0  0  0  0  0  0  0  0  0  0
    0.5735   21.2727    0.3290 C    0  0  0  0  0  0  0  0  0  0  0  0
    1.5627   22.1490    0.5652 C    0  0  0  0  0  0  0  0  0  0  0  0
   -0.8114   21.6469   -0.1465 C    0  0  0  0  0  0  0  0  0  0  0  0
    1.5691   23.6518    0.4194 C    0  0  0  0  0  0  0  0  0  0  0  0
    1.8469   24.3244    1.7778 C    0  0  0  0  0  0  0  0  0  0  0  0
    2.6145   24.0870   -0.6263 C    0  0  0  0  0  0  0  0  0  0  0  0
    0.9764   17.8987   -0.5412 H    0  0  0  0  0  0  0  0  0  0  0  0
   -0.1829   19.0188   -1.2656 H    0  0  0  0  0  0  0  0  0  0  0  0
    1.5545   19.3056   -1.4538 H    0  0  0  0  0  0  0  0  0  0  0  0
    1.7683   19.6384    1.0436 H    0  0  0  0  0  0  0  0  0  0  0  0
    0.0344   19.3935    1.2205 H    0  0  0  0  0  0  0  0  0  0  0  0
    2.5152   21.7411    0.9151 H    0  0  0  0  0  0  0  0  0  0  0  0
   -1.5737   21.2391    0.5320 H    0  0  0  0  0  0  0  0  0  0  0  0
   -0.9660   22.7264   -0.2106 H    0  0  0  0  0  0  0  0  0  0  0  0
   -1.0214   21.2245   -1.1379 H    0  0  0  0  0  0  0  0  0  0  0  0
    0.5875   23.9944    0.0706 H    0  0  0  0  0  0  0  0  0  0  0  0
    1.8631   25.4169    1.6802 H    0  0  0  0  0  0  0  0  0  0  0  0
    1.0822   24.0575    2.5155 H    0  0  0  0  0  0  0  0  0  0  0  0
    2.8200   24.0110    2.1775 H    0  0  0  0  0  0  0  0  0  0  0  0
    2.6328   25.1785   -0.7333 H    0  0  0  0  0  0  0  0  0  0  0  0
    2.3989   23.6499   -1.6074 H    0  0  0  0  0  0  0  0  0  0  0  0
    3.6213   23.7641   -0.3310 H    0  0  0  0  0  0  0  0  0  0  0  0
  1  2  1  0  0  0  0
  1  9  1  0  0  0  0
  1 10  1  0  0  0  0
  1 11  1  0  0  0  0
  2  3  1  0  0  0  0
  2 12  1  0  0  0  0
  2 13  1  0  0  0  0
  3  4  2  0  0  0  0
  3  5  1  0  0  0  0
  4  6  1  0  0  0  0
  4 14  1  0  0  0  0
  5 15  1  0  0  0  0
  5 16  1  0  0  0  0
  5 17  1  0  0  0  0
  6  7  1  0  0  0  0
  6  8  1  0  0  0  0
  6 18  1  0  0  0  0
  7 19  1  0  0  0  0
  7 20  1  0  0  0  0
  7 21  1  0  0  0  0
  8 22  1  0  0  0  0
  8 23  1  0  0  0  0
  8 24  1  0  0  0  0
M  END
