  2,4-DIMETHYLQUINOLINE.mol	1198-37-4
  NIST    07061523173D 1   1.00000  -480.57067
Copyright by the U.S. Sec. Commerce on behalf of U.S.A. All rights reserved.
 23 24  0  0  0  0  0  0  0  0999 V2000
   -3.9078   -2.1573    1.7475 C    0  0  0  0  0  0  0  0  0  0  0  0
   -5.3516   -1.8896    2.0890 C    0  0  0  0  0  0  0  0  0  0  0  0
   -3.4799   -3.4398    1.2745 C    0  0  0  0  0  0  0  0  0  0  0  0
   -2.9513   -1.1777    1.8791 C    0  0  0  0  0  0  0  0  0  0  0  0
   -2.0911   -3.6066    0.9755 C    0  0  0  0  0  0  0  0  0  0  0  0
   -4.3552   -4.5419    1.0893 C    0  0  0  0  0  0  0  0  0  0  0  0
   -1.5873   -1.4350    1.5567 C    0  0  0  0  0  0  0  0  0  0  0  0
   -1.1691   -2.6067    1.1206 N    0  0  0  0  0  0  0  0  0  0  0  0
   -1.6313   -4.8637    0.5043 C    0  0  0  0  0  0  0  0  0  0  0  0
   -3.8794   -5.7517    0.6296 C    0  0  0  0  0  0  0  0  0  0  0  0
   -0.5602   -0.3400    1.7124 C    0  0  0  0  0  0  0  0  0  0  0  0
   -2.5057   -5.9143    0.3345 C    0  0  0  0  0  0  0  0  0  0  0  0
   -5.4874   -0.8596    2.4307 H    0  0  0  0  0  0  0  0  0  0  0  0
   -6.0045   -2.0472    1.2217 H    0  0  0  0  0  0  0  0  0  0  0  0
   -5.7061   -2.5586    2.8829 H    0  0  0  0  0  0  0  0  0  0  0  0
   -3.2317   -0.1887    2.2347 H    0  0  0  0  0  0  0  0  0  0  0  0
   -5.4118   -4.4290    1.3129 H    0  0  0  0  0  0  0  0  0  0  0  0
   -0.5719   -4.9574    0.2862 H    0  0  0  0  0  0  0  0  0  0  0  0
   -4.5621   -6.5860    0.4927 H    0  0  0  0  0  0  0  0  0  0  0  0
   -0.8081    0.5276    1.0877 H    0  0  0  0  0  0  0  0  0  0  0  0
   -0.5133    0.0146    2.7500 H    0  0  0  0  0  0  0  0  0  0  0  0
    0.4237   -0.7141    1.4224 H    0  0  0  0  0  0  0  0  0  0  0  0
   -2.1434   -6.8729   -0.0272 H    0  0  0  0  0  0  0  0  0  0  0  0
  1  2  1  0  0  0  0
  1  3  1  0  0  0  0
  2 13  1  0  0  0  0
  2 14  1  0  0  0  0
  2 15  1  0  0  0  0
  3  6  2  0  0  0  0
  3  5  1  0  0  0  0
  4  1  2  0  0  0  0
  4 16  1  0  0  0  0
  5  8  1  0  0  0  0
  6 10  1  0  0  0  0
  6 17  1  0  0  0  0
  7 11  1  0  0  0  0
  7  4  1  0  0  0  0
  7  8  2  0  0  0  0
  9  5  2  0  0  0  0
  9 18  1  0  0  0  0
 10 12  2  0  0  0  0
 10 19  1  0  0  0  0
 11 20  1  0  0  0  0
 11 21  1  0  0  0  0
 11 22  1  0  0  0  0
 12  9  1  0  0  0  0
 12 23  1  0  0  0  0
M  END
