  2,4-DIMETHYL-2-HEXENE.mol	14255-23-3
  NIST    08011214473D 1   1.00000  -314.48448
Copyright by the U.S. Sec. Commerce on behalf of U.S.A. All rights reserved.
 24 23  0  0  0  0  0  0  0  0999 V2000
   -0.2572   18.4925   -0.3344 C    0  0  0  0  0  0  0  0  0  0  0  0
    1.2013   18.8246   -0.0061 C    0  0  0  0  0  0  0  0  0  0  0  0
    1.4816   20.3367    0.1624 C    0  0  0  0  0  0  0  0  0  0  0  0
    0.7481   20.8979    1.3570 C    0  0  0  0  0  0  0  0  0  0  0  0
    2.9954   20.5918    0.3040 C    0  0  0  0  0  0  0  0  0  0  0  0
   -0.1732   21.8725    1.4129 C    0  0  0  0  0  0  0  0  0  0  0  0
   -0.7707   22.2943    2.7357 C    0  0  0  0  0  0  0  0  0  0  0  0
   -0.6991   22.6390    0.2230 C    0  0  0  0  0  0  0  0  0  0  0  0
   -0.4045   17.4110   -0.4340 H    0  0  0  0  0  0  0  0  0  0  0  0
   -0.9319   18.8563    0.4480 H    0  0  0  0  0  0  0  0  0  0  0  0
   -0.5646   18.9581   -1.2793 H    0  0  0  0  0  0  0  0  0  0  0  0
    1.8529   18.4349   -0.8007 H    0  0  0  0  0  0  0  0  0  0  0  0
    1.5003   18.3041    0.9158 H    0  0  0  0  0  0  0  0  0  0  0  0
    1.1416   20.8389   -0.7525 H    0  0  0  0  0  0  0  0  0  0  0  0
    1.0363   20.4322    2.3036 H    0  0  0  0  0  0  0  0  0  0  0  0
    3.2102   21.6632    0.3820 H    0  0  0  0  0  0  0  0  0  0  0  0
    3.5443   20.1935   -0.5581 H    0  0  0  0  0  0  0  0  0  0  0  0
    3.3923   20.1065    1.2050 H    0  0  0  0  0  0  0  0  0  0  0  0
   -0.3654   21.7147    3.5711 H    0  0  0  0  0  0  0  0  0  0  0  0
   -0.5791   23.3583    2.9356 H    0  0  0  0  0  0  0  0  0  0  0  0
   -1.8632   22.1720    2.7349 H    0  0  0  0  0  0  0  0  0  0  0  0
   -0.2617   22.3203   -0.7257 H    0  0  0  0  0  0  0  0  0  0  0  0
   -1.7898   22.5298    0.1435 H    0  0  0  0  0  0  0  0  0  0  0  0
   -0.5045   23.7146    0.3386 H    0  0  0  0  0  0  0  0  0  0  0  0
  1  2  1  0
  2  3  1  0
  3  4  1  0
  3  5  1  0
  4  6  2  0
  6  7  1  0
  6  8  1  0
  1  9  1  0
  1 10  1  0
  1 11  1  0
  2 12  1  0
  2 13  1  0
  3 14  1  0
  4 15  1  0
  5 16  1  0
  5 17  1  0
  5 18  1  0
  7 19  1  0
  7 20  1  0
  7 21  1  0
  8 22  1  0
  8 23  1  0
  8 24  1  0
M  END
