  2,5-DIMETHYL-1-HEXENE.mol	6975-92-4
  NIST    07011511373D 1   1.00000  -314.48003
Copyright by the U.S. Sec. Commerce on behalf of U.S.A. All rights reserved.
 24 23  0  0  0  0  0  0  0  0999 V2000
    3.1507    1.7696    3.2148 C    0  0  0  0  0  0  0  0  0  0  0  0
    1.8707    1.1871    3.8484 C    0  0  0  0  0  0  0  0  0  0  0  0
    3.6002    1.0780    1.9113 C    0  0  0  0  0  0  0  0  0  0  0  0
    1.4937    1.8319    5.1676 C    0  0  0  0  0  0  0  0  0  0  0  0
    2.5818    1.2434    0.7727 C    0  0  0  0  0  0  0  0  0  0  0  0
    4.9788    1.5986    1.4778 C    0  0  0  0  0  0  0  0  0  0  0  0
    2.3961    1.5561    6.3470 C    0  0  0  0  0  0  0  0  0  0  0  0
    0.4079    2.6040    5.2822 C    0  0  0  0  0  0  0  0  0  0  0  0
    3.9733    1.7037    3.9395 H    0  0  0  0  0  0  0  0  0  0  0  0
    2.9973    2.8416    3.0224 H    0  0  0  0  0  0  0  0  0  0  0  0
    1.0332    1.2920    3.1499 H    0  0  0  0  0  0  0  0  0  0  0  0
    2.0190    0.1064    4.0021 H    0  0  0  0  0  0  0  0  0  0  0  0
    3.6993    0.0015    2.1227 H    0  0  0  0  0  0  0  0  0  0  0  0
    2.4240    2.3057    0.5430 H    0  0  0  0  0  0  0  0  0  0  0  0
    2.9366    0.7557   -0.1431 H    0  0  0  0  0  0  0  0  0  0  0  0
    1.6083    0.8073    1.0205 H    0  0  0  0  0  0  0  0  0  0  0  0
    4.9401    2.6734    1.2574 H    0  0  0  0  0  0  0  0  0  0  0  0
    5.7293    1.4470    2.2629 H    0  0  0  0  0  0  0  0  0  0  0  0
    5.3304    1.0873    0.5737 H    0  0  0  0  0  0  0  0  0  0  0  0
    2.4727    0.4765    6.5379 H    0  0  0  0  0  0  0  0  0  0  0  0
    2.0261    2.0368    7.2578 H    0  0  0  0  0  0  0  0  0  0  0  0
    3.4186    1.9143    6.1704 H    0  0  0  0  0  0  0  0  0  0  0  0
   -0.2491    2.7962    4.4371 H    0  0  0  0  0  0  0  0  0  0  0  0
    0.1347    3.0735    6.2244 H    0  0  0  0  0  0  0  0  0  0  0  0
  1  2  1  0  0  0  0
  1  3  1  0  0  0  0
  1  9  1  0  0  0  0
  1 10  1  0  0  0  0
  2  4  1  0  0  0  0
  2 11  1  0  0  0  0
  2 12  1  0  0  0  0
  3  5  1  0  0  0  0
  3  6  1  0  0  0  0
  3 13  1  0  0  0  0
  4  7  1  0  0  0  0
  4  8  2  0  0  0  0
  5 14  1  0  0  0  0
  5 15  1  0  0  0  0
  5 16  1  0  0  0  0
  6 17  1  0  0  0  0
  6 18  1  0  0  0  0
  6 19  1  0  0  0  0
  7 20  1  0  0  0  0
  7 21  1  0  0  0  0
  7 22  1  0  0  0  0
  8 23  1  0  0  0  0
  8 24  1  0  0  0  0
M  END
