  2,5-DIMETHYLPYRROLE.mol	625-84-3
  NIST    06051417113D 1   1.00000  -288.80655
Copyright by the U.S. Sec. Commerce on behalf of U.S.A. All rights reserved.
 16 16  0  0  0  0  0  0  0  0999 V2000
   -0.3219   -1.5568    0.1262 C    0  0  0  0  0  0  0  0  0  0  0  0
   -1.1766   -0.6999   -0.5409 N    0  0  0  0  0  0  0  0  0  0  0  0
   -1.1129   -2.3925    0.8863 C    0  0  0  0  0  0  0  0  0  0  0  0
    1.1626   -1.4816   -0.0382 C    0  0  0  0  0  0  0  0  0  0  0  0
   -2.4741   -2.0262    0.6687 C    0  0  0  0  0  0  0  0  0  0  0  0
   -2.4930   -0.9727   -0.2211 C    0  0  0  0  0  0  0  0  0  0  0  0
   -3.6278   -0.1919   -0.8034 C    0  0  0  0  0  0  0  0  0  0  0  0
   -0.8796    0.0271   -1.1749 H    0  0  0  0  0  0  0  0  0  0  0  0
   -0.7482   -3.1828    1.5296 H    0  0  0  0  0  0  0  0  0  0  0  0
    1.6427   -2.2479    0.5771 H    0  0  0  0  0  0  0  0  0  0  0  0
    1.4778   -1.6499   -1.0777 H    0  0  0  0  0  0  0  0  0  0  0  0
    1.5695   -0.5088    0.2719 H    0  0  0  0  0  0  0  0  0  0  0  0
   -3.3484   -2.4830    1.1141 H    0  0  0  0  0  0  0  0  0  0  0  0
   -4.5770   -0.5733   -0.4163 H    0  0  0  0  0  0  0  0  0  0  0  0
   -3.5750    0.8762   -0.5494 H    0  0  0  0  0  0  0  0  0  0  0  0
   -3.6671   -0.2645   -1.8994 H    0  0  0  0  0  0  0  0  0  0  0  0
  1  4  1  0
  6  7  1  0
  1  3  2  0
  3  5  1  0
  5  6  2  0
  6  2  1  0
  1  2  1  0
  2  8  1  0
  3  9  1  0
  4 10  1  0
  4 11  1  0
  4 12  1  0
  5 13  1  0
  7 14  1  0
  7 15  1  0
  7 16  1  0
M  END
