  2,5-DIHYDROFURAN.mol	1708-29-8
  NIST    06301516373D 1   1.00000  -231.21587
Copyright by the U.S. Sec. Commerce on behalf of U.S.A. All rights reserved.
 11 11  0  0  0  0  0  0  0  0999 V2000
    2.4040    0.8740    0.8992 C    0  0  0  0  0  0  0  0  0  0  0  0
    1.0734    0.8904    0.8952 C    0  0  0  0  0  0  0  0  0  0  0  0
    2.9284    2.2843    0.9039 C    0  0  0  0  0  0  0  0  0  0  0  0
    0.5840    2.3133    0.8969 C    0  0  0  0  0  0  0  0  0  0  0  0
    1.7663    3.1176    0.9018 O    0  0  0  0  0  0  0  0  0  0  0  0
    3.0459   -0.0007    0.8993 H    0  0  0  0  0  0  0  0  0  0  0  0
    0.4100    0.0319    0.8914 H    0  0  0  0  0  0  0  0  0  0  0  0
    3.5417    2.5037    1.7931 H    0  0  0  0  0  0  0  0  0  0  0  0
    3.5475    2.5075    0.0197 H    0  0  0  0  0  0  0  0  0  0  0  0
   -0.0242    2.5517    0.0090 H    0  0  0  0  0  0  0  0  0  0  0  0
   -0.0290    2.5479    1.7824 H    0  0  0  0  0  0  0  0  0  0  0  0
  1  2  2  0  0  0  0
  1  6  1  0  0  0  0
  2  4  1  0  0  0  0
  2  7  1  0  0  0  0
  3  1  1  0  0  0  0
  3  8  1  0  0  0  0
  3  9  1  0  0  0  0
  4  5  1  0  0  0  0
  4 10  1  0  0  0  0
  4 11  1  0  0  0  0
  5  3  1  0  0  0  0
M  END
