  2,6-DINITROTOLUENE.mol	606-20-2
  NIST    06201314163D 1   1.00000  -680.55358
Copyright by the U.S. Sec. Commerce on behalf of U.S.A. All rights reserved.
 19 19  0  0  0  0  0  0  0  0999 V2000
    6.6533    4.1338   -0.5691 O    0  0  0  0  0  0  0  0  0  0  0  0
    7.1151    3.0460   -0.9099 N    0  0  0  0  0  0  0  0  0  0  0  0
    8.1786    2.8906   -1.5069 O    0  0  0  0  0  0  0  0  0  0  0  0
    6.3044    1.8465   -0.6115 C    0  0  0  0  0  0  0  0  0  0  0  0
    6.9150    0.6030   -0.3515 C    0  0  0  0  0  0  0  0  0  0  0  0
    4.9240    2.0462   -0.6234 C    0  0  0  0  0  0  0  0  0  0  0  0
    8.4114    0.4286   -0.2327 C    0  0  0  0  0  0  0  0  0  0  0  0
    5.9987   -0.4445   -0.1294 C    0  0  0  0  0  0  0  0  0  0  0  0
    4.0706    0.9743   -0.3913 C    0  0  0  0  0  0  0  0  0  0  0  0
    6.4651   -1.8259    0.1137 N    0  0  0  0  0  0  0  0  0  0  0  0
    4.6138   -0.2787   -0.1339 C    0  0  0  0  0  0  0  0  0  0  0  0
    5.7649   -2.5356    0.8339 O    0  0  0  0  0  0  0  0  0  0  0  0
    7.4991   -2.1923   -0.4413 O    0  0  0  0  0  0  0  0  0  0  0  0
    4.5446    3.0425   -0.8152 H    0  0  0  0  0  0  0  0  0  0  0  0
    8.8476    0.1678   -1.2015 H    0  0  0  0  0  0  0  0  0  0  0  0
    8.8853    1.3516    0.1001 H    0  0  0  0  0  0  0  0  0  0  0  0
    8.6559   -0.3747    0.4617 H    0  0  0  0  0  0  0  0  0  0  0  0
    2.9950    1.1140   -0.4094 H    0  0  0  0  0  0  0  0  0  0  0  0
    3.9865   -1.1390    0.0651 H    0  0  0  0  0  0  0  0  0  0  0  0
  1  2  2  0
  2  3  2  0
  2  4  1  0
  5  7  1  0
  8 10  1  0
 10 12  2  0
 10 13  2  0
  4  5  1  0
  5  8  2  0
  8 11  1  0
 11  9  2  0
  9  6  1  0
  4  6  2  0
  6 14  1  0
  7 15  1  0
  7 16  1  0
  7 17  1  0
  9 18  1  0
 11 19  1  0
M  END
