  2,6-DIETHYLANILINE.mol	579-66-8
  NIST    06181301113D 1   1.00000  -444.86103
Copyright by the U.S. Sec. Commerce on behalf of U.S.A. All rights reserved.
 26 26  0  0  0  0  0  0  0  0999 V2000
    6.5020    1.8145   -0.5031 C    0  0  0  0  0  0  0  0  0  0  0  0
    6.8423    0.5111   -0.1309 C    0  0  0  0  0  0  0  0  0  0  0  0
    5.1877    2.2727   -0.4409 C    0  0  0  0  0  0  0  0  0  0  0  0
    5.8211   -0.3599    0.3152 C    0  0  0  0  0  0  0  0  0  0  0  0
    8.2837    0.0494   -0.2235 C    0  0  0  0  0  0  0  0  0  0  0  0
    4.4847    0.0958    0.3977 C    0  0  0  0  0  0  0  0  0  0  0  0
    6.1477   -1.6554    0.7554 N    0  0  0  0  0  0  0  0  0  0  0  0
    4.1946    1.4079    0.0140 C    0  0  0  0  0  0  0  0  0  0  0  0
    3.3722   -0.8145    0.8802 C    0  0  0  0  0  0  0  0  0  0  0  0
    2.8248   -1.7597   -0.2081 C    0  0  0  0  0  0  0  0  0  0  0  0
    8.6022   -0.7400   -1.5092 C    0  0  0  0  0  0  0  0  0  0  0  0
    7.2921    2.4813   -0.8430 H    0  0  0  0  0  0  0  0  0  0  0  0
    4.9436    3.2911   -0.7294 H    0  0  0  0  0  0  0  0  0  0  0  0
    8.9381    0.9282   -0.1840 H    0  0  0  0  0  0  0  0  0  0  0  0
    8.5458   -0.5552    0.6558 H    0  0  0  0  0  0  0  0  0  0  0  0
    5.3918   -2.3244    0.7027 H    0  0  0  0  0  0  0  0  0  0  0  0
    6.9898   -2.0408    0.3503 H    0  0  0  0  0  0  0  0  0  0  0  0
    3.1650    1.7541    0.0822 H    0  0  0  0  0  0  0  0  0  0  0  0
    3.7113   -1.4030    1.7439 H    0  0  0  0  0  0  0  0  0  0  0  0
    2.5462   -0.1955    1.2497 H    0  0  0  0  0  0  0  0  0  0  0  0
    2.0292   -2.4005    0.1898 H    0  0  0  0  0  0  0  0  0  0  0  0
    2.4143   -1.1854   -1.0455 H    0  0  0  0  0  0  0  0  0  0  0  0
    3.6059   -2.4116   -0.6184 H    0  0  0  0  0  0  0  0  0  0  0  0
    9.6506   -1.0600   -1.5261 H    0  0  0  0  0  0  0  0  0  0  0  0
    7.9766   -1.6357   -1.6073 H    0  0  0  0  0  0  0  0  0  0  0  0
    8.4191   -0.1223   -2.3950 H    0  0  0  0  0  0  0  0  0  0  0  0
  2  5  1  0
  4  7  1  0
  5 11  1  0
  6  9  1  0
  9 10  1  0
  1  2  1  0
  2  4  2  0
  4  6  1  0
  6  8  2  0
  8  3  1  0
  1  3  2  0
  1 12  1  0
  3 13  1  0
  5 14  1  0
  5 15  1  0
  7 16  1  0
  7 17  1  0
  8 18  1  0
  9 19  1  0
  9 20  1  0
 10 21  1  0
 10 22  1  0
 10 23  1  0
 11 24  1  0
 11 25  1  0
 11 26  1  0
M  END
