  2,6-DIMETHYLQUINOLINE.mol	877-43-0
  NIST    07061521553D 1   1.00000  -480.57054
Copyright by the U.S. Sec. Commerce on behalf of U.S.A. All rights reserved.
 23 24  0  0  0  0  0  0  0  0999 V2000
   -3.9207   -5.7453    0.6827 C    0  0  0  0  0  0  0  0  0  0  0  0
   -2.5215   -5.9264    0.4892 C    0  0  0  0  0  0  0  0  0  0  0  0
   -4.3772   -4.4965    1.0530 C    0  0  0  0  0  0  0  0  0  0  0  0
   -4.8633   -6.9076    0.4817 C    0  0  0  0  0  0  0  0  0  0  0  0
   -1.6305   -4.8933    0.6626 C    0  0  0  0  0  0  0  0  0  0  0  0
   -2.0860   -3.6036    1.0435 C    0  0  0  0  0  0  0  0  0  0  0  0
   -3.4866   -3.4081    1.2410 C    0  0  0  0  0  0  0  0  0  0  0  0
   -3.9068   -2.1072    1.6216 C    0  0  0  0  0  0  0  0  0  0  0  0
   -1.1674   -2.6057    1.2052 N    0  0  0  0  0  0  0  0  0  0  0  0
   -1.5925   -1.4068    1.5601 C    0  0  0  0  0  0  0  0  0  0  0  0
   -2.9717   -1.1158    1.7801 C    0  0  0  0  0  0  0  0  0  0  0  0
   -0.5569   -0.3221    1.7324 C    0  0  0  0  0  0  0  0  0  0  0  0
   -2.1563   -6.9088    0.1973 H    0  0  0  0  0  0  0  0  0  0  0  0
   -5.4421   -4.3308    1.2074 H    0  0  0  0  0  0  0  0  0  0  0  0
   -5.9025   -6.6169    0.6641 H    0  0  0  0  0  0  0  0  0  0  0  0
   -4.7989   -7.3009   -0.5408 H    0  0  0  0  0  0  0  0  0  0  0  0
   -4.6228   -7.7373    1.1585 H    0  0  0  0  0  0  0  0  0  0  0  0
   -0.5633   -5.0290    0.5158 H    0  0  0  0  0  0  0  0  0  0  0  0
   -4.9647   -1.9113    1.7831 H    0  0  0  0  0  0  0  0  0  0  0  0
   -3.2670   -0.1112    2.0710 H    0  0  0  0  0  0  0  0  0  0  0  0
   -0.5705    0.0802    2.7534 H    0  0  0  0  0  0  0  0  0  0  0  0
    0.4366   -0.7250    1.5252 H    0  0  0  0  0  0  0  0  0  0  0  0
   -0.7470    0.5190    1.0535 H    0  0  0  0  0  0  0  0  0  0  0  0
  1  4  1  0  0  0  0
  1  2  1  0  0  0  0
  2  5  2  0  0  0  0
  2 13  1  0  0  0  0
  3  1  2  0  0  0  0
  3 14  1  0  0  0  0
  4 15  1  0  0  0  0
  4 16  1  0  0  0  0
  4 17  1  0  0  0  0
  5  6  1  0  0  0  0
  5 18  1  0  0  0  0
  6  9  2  0  0  0  0
  7  3  1  0  0  0  0
  7  6  1  0  0  0  0
  8  7  2  0  0  0  0
  8 19  1  0  0  0  0
 10 12  1  0  0  0  0
 10 11  2  0  0  0  0
 10  9  1  0  0  0  0
 11  8  1  0  0  0  0
 11 20  1  0  0  0  0
 12 21  1  0  0  0  0
 12 22  1  0  0  0  0
 12 23  1  0  0  0  0
M  END
