  2,7-DIMETHYLNAPHTHALENE.mol	582-16-1
  NIST    06301521013D 1   1.00000  -464.52962
Copyright by the U.S. Sec. Commerce on behalf of U.S.A. All rights reserved.
 24 25  0  0  0  0  0  0  0  0999 V2000
    1.8841    3.3055    0.8565 C    0  0  0  0  0  0  0  0  0  0  0  0
    0.5863    4.0772    0.8512 C    0  0  0  0  0  0  0  0  0  0  0  0
    3.1067    3.9455    0.8552 C    0  0  0  0  0  0  0  0  0  0  0  0
    1.8614    1.8823    0.8628 C    0  0  0  0  0  0  0  0  0  0  0  0
    4.3314    3.2248    0.8601 C    0  0  0  0  0  0  0  0  0  0  0  0
    3.0259    1.1512    0.8677 C    0  0  0  0  0  0  0  0  0  0  0  0
    4.2917    1.7953    0.8665 C    0  0  0  0  0  0  0  0  0  0  0  0
    5.5944    3.8761    0.8588 C    0  0  0  0  0  0  0  0  0  0  0  0
    5.5197    1.0816    0.8713 C    0  0  0  0  0  0  0  0  0  0  0  0
    6.7795    3.1690    0.8636 C    0  0  0  0  0  0  0  0  0  0  0  0
    6.7230    1.7467    0.8699 C    0  0  0  0  0  0  0  0  0  0  0  0
    8.1184    3.8669    0.8623 C    0  0  0  0  0  0  0  0  0  0  0  0
   -0.0203    3.8331   -0.0304 H    0  0  0  0  0  0  0  0  0  0  0  0
   -0.0231    3.8402    1.7328 H    0  0  0  0  0  0  0  0  0  0  0  0
    0.7627    5.1573    0.8472 H    0  0  0  0  0  0  0  0  0  0  0  0
    3.1465    5.0333    0.8504 H    0  0  0  0  0  0  0  0  0  0  0  0
    0.9015    1.3703    0.8639 H    0  0  0  0  0  0  0  0  0  0  0  0
    2.9905    0.0639    0.8725 H    0  0  0  0  0  0  0  0  0  0  0  0
    5.6154    4.9645    0.8540 H    0  0  0  0  0  0  0  0  0  0  0  0
    5.4942   -0.0059    0.8761 H    0  0  0  0  0  0  0  0  0  0  0  0
    7.6531    1.1822    0.8736 H    0  0  0  0  0  0  0  0  0  0  0  0
    8.7103    3.5974    1.7466 H    0  0  0  0  0  0  0  0  0  0  0  0
    8.7137    3.5877   -0.0165 H    0  0  0  0  0  0  0  0  0  0  0  0
    8.0030    4.9552    0.8561 H    0  0  0  0  0  0  0  0  0  0  0  0
  1  2  1  0  0  0  0
  1  3  2  0  0  0  0
  2 13  1  0  0  0  0
  2 14  1  0  0  0  0
  2 15  1  0  0  0  0
  3  5  1  0  0  0  0
  3 16  1  0  0  0  0
  4  1  1  0  0  0  0
  4 17  1  0  0  0  0
  5  8  1  0  0  0  0
  6  4  2  0  0  0  0
  6 18  1  0  0  0  0
  7  5  2  0  0  0  0
  7  6  1  0  0  0  0
  8 10  2  0  0  0  0
  8 19  1  0  0  0  0
  9  7  1  0  0  0  0
  9 20  1  0  0  0  0
 10 11  1  0  0  0  0
 10 12  1  0  0  0  0
 11  9  2  0  0  0  0
 11 21  1  0  0  0  0
 12 22  1  0  0  0  0
 12 23  1  0  0  0  0
 12 24  1  0  0  0  0
M  END
