  2-ACETYLTHIOPHEN.mol	88-15-3
  NIST    06201415393D 1   1.00000  -705.65330
Copyright by the U.S. Sec. Commerce on behalf of U.S.A. All rights reserved.
 14 14  0  0  0  0  0  0  0  0999 V2000
   -1.4914    1.9280   -0.5453 C    0  0  0  0  0  0  0  0  0  0  0  0
   -2.7622    1.8418    0.2852 C    0  0  0  0  0  0  0  0  0  0  0  0
   -2.9154    2.5191    1.2928 O    0  0  0  0  0  0  0  0  0  0  0  0
   -3.8102    0.9102   -0.1655 C    0  0  0  0  0  0  0  0  0  0  0  0
   -5.2851    0.7881    0.7651 S    0  0  0  0  0  0  0  0  0  0  0  0
   -5.9158   -0.3940   -0.3235 C    0  0  0  0  0  0  0  0  0  0  0  0
   -5.0466   -0.6829   -1.3465 C    0  0  0  0  0  0  0  0  0  0  0  0
   -3.8423    0.0642   -1.2547 C    0  0  0  0  0  0  0  0  0  0  0  0
   -0.8196    2.6535   -0.0834 H    0  0  0  0  0  0  0  0  0  0  0  0
   -0.9930    0.9530   -0.5997 H    0  0  0  0  0  0  0  0  0  0  0  0
   -1.7161    2.2414   -1.5716 H    0  0  0  0  0  0  0  0  0  0  0  0
   -6.8977   -0.8167   -0.1535 H    0  0  0  0  0  0  0  0  0  0  0  0
   -5.2593   -1.3997   -2.1321 H    0  0  0  0  0  0  0  0  0  0  0  0
   -3.0274   -0.0183   -1.9657 H    0  0  0  0  0  0  0  0  0  0  0  0
  1  2  1  0
  2  3  2  0
  2  4  1  0
  4  8  2  0
  8  7  1  0
  7  6  2  0
  6  5  1  0
  4  5  1  0
  1  9  1  0
  1 10  1  0
  1 11  1  0
  6 12  1  0
  7 13  1  0
  8 14  1  0
M  END
