  2-BROMO-2-CHLORO-1,1,1-TRIFLUOROETHANE.mol	151-67-7
  NIST    07251211073D 1   1.00000 -3408.23209
Copyright by the U.S. Sec. Commerce on behalf of U.S.A. All rights reserved.
  8  7  0  0  0  0  0  0  0  0999 V2000
   41.0044   20.0023    0.0276 C    0  0  0  0  0  0  0  0  0  0  0  0
   39.4686   20.0073    0.0169 C    0  0  0  0  0  0  0  0  0  0  0  0
   38.9560   20.6339    1.0797 F    0  0  0  0  0  0  0  0  0  0  0  0
   39.0312   20.6186   -1.0972 F    0  0  0  0  0  0  0  0  0  0  0  0
   39.0116   18.7428    0.0017 F    0  0  0  0  0  0  0  0  0  0  0  0
   41.6717   21.8397   -0.0349 Br   0  0  0  0  0  0  0  0  0  0  0  0
   41.6303   19.1129    1.4381 Cl   0  0  0  0  0  0  0  0  0  0  0  0
   41.3614   19.5101   -0.8742 H    0  0  0  0  0  0  0  0  0  0  0  0
  1  2  1  0
  1  6  1  0
  1  7  1  0
  2  3  1  0
  2  4  1  0
  2  5  1  0
  1  8  1  0
M  END
