  2-CHLOROPYRIDINE.mol	109-09-1
  NIST    06191415143D 1   1.00000  -707.88312
Copyright by the U.S. Sec. Commerce on behalf of U.S.A. All rights reserved.
 11 11  0  0  0  0  0  0  0  0999 V2000
    3.0882    0.2007   -0.1646 C    0  0  0  0  0  0  0  0  0  0  0  0
    4.3503   -0.3957   -0.2099 C    0  0  0  0  0  0  0  0  0  0  0  0
    1.9731   -0.6275   -0.0598 C    0  0  0  0  0  0  0  0  0  0  0  0
    2.0488   -1.9655   -0.0003 N    0  0  0  0  0  0  0  0  0  0  0  0
    3.2539   -2.5022   -0.0451 C    0  0  0  0  0  0  0  0  0  0  0  0
    4.4481   -1.7830   -0.1492 C    0  0  0  0  0  0  0  0  0  0  0  0
    3.3392   -4.2635    0.0337 Cl   0  0  0  0  0  0  0  0  0  0  0  0
    2.9702    1.2786   -0.2093 H    0  0  0  0  0  0  0  0  0  0  0  0
    5.2489    0.2094   -0.2914 H    0  0  0  0  0  0  0  0  0  0  0  0
    0.9692   -0.2097   -0.0210 H    0  0  0  0  0  0  0  0  0  0  0  0
    5.4031   -2.2945   -0.1806 H    0  0  0  0  0  0  0  0  0  0  0  0
  5  7  1  0
  1  2  2  0
  2  6  1  0
  6  5  2  0
  5  4  1  0
  4  3  2  0
  1  3  1  0
  1  8  1  0
  2  9  1  0
  3 10  1  0
  6 11  1  0
M  END
