  2-DECYNE.mol	2384-70-5
  NIST    07011508413D 1   1.00000  -391.85858
Copyright by the U.S. Sec. Commerce on behalf of U.S.A. All rights reserved.
 28 27  0  0  0  0  0  0  0  0999 V2000
    6.3602    3.0018    1.6500 C    0  0  0  0  0  0  0  0  0  0  0  0
    4.9596    2.4791    2.0082 C    0  0  0  0  0  0  0  0  0  0  0  0
    3.8013    3.3475    1.4931 C    0  0  0  0  0  0  0  0  0  0  0  0
    6.7388    4.3216    2.3592 C    0  0  0  0  0  0  0  0  0  0  0  0
    2.4011    2.8284    1.8623 C    0  0  0  0  0  0  0  0  0  0  0  0
    8.0984    4.7691    2.0481 C    0  0  0  0  0  0  0  0  0  0  0  0
    2.0049    1.4999    1.2018 C    0  0  0  0  0  0  0  0  0  0  0  0
    9.2233    5.1225    1.7771 C    0  0  0  0  0  0  0  0  0  0  0  0
    0.5725    1.0724    1.5389 C    0  0  0  0  0  0  0  0  0  0  0  0
   10.5808    5.5580    1.4553 C    0  0  0  0  0  0  0  0  0  0  0  0
    6.4382    3.1461    0.5642 H    0  0  0  0  0  0  0  0  0  0  0  0
    7.1087    2.2447    1.9140 H    0  0  0  0  0  0  0  0  0  0  0  0
    4.8782    2.3776    3.1013 H    0  0  0  0  0  0  0  0  0  0  0  0
    4.8612    1.4642    1.6022 H    0  0  0  0  0  0  0  0  0  0  0  0
    3.9044    4.3669    1.8882 H    0  0  0  0  0  0  0  0  0  0  0  0
    3.8779    3.4372    0.3989 H    0  0  0  0  0  0  0  0  0  0  0  0
    6.6349    4.1855    3.4460 H    0  0  0  0  0  0  0  0  0  0  0  0
    6.0268    5.1118    2.0857 H    0  0  0  0  0  0  0  0  0  0  0  0
    1.6598    3.5909    1.5830 H    0  0  0  0  0  0  0  0  0  0  0  0
    2.3293    2.7247    2.9556 H    0  0  0  0  0  0  0  0  0  0  0  0
    2.1117    1.5950    0.1114 H    0  0  0  0  0  0  0  0  0  0  0  0
    2.6983    0.7055    1.5078 H    0  0  0  0  0  0  0  0  0  0  0  0
    0.3115    0.1258    1.0521 H    0  0  0  0  0  0  0  0  0  0  0  0
    0.4432    0.9374    2.6200 H    0  0  0  0  0  0  0  0  0  0  0  0
   -0.1536    1.8271    1.2120 H    0  0  0  0  0  0  0  0  0  0  0  0
   11.2726    5.3586    2.2832 H    0  0  0  0  0  0  0  0  0  0  0  0
   10.6169    6.6346    1.2474 H    0  0  0  0  0  0  0  0  0  0  0  0
   10.9681    5.0384    0.5701 H    0  0  0  0  0  0  0  0  0  0  0  0
  1  2  1  0  0  0  0
  1  4  1  0  0  0  0
  1 11  1  0  0  0  0
  1 12  1  0  0  0  0
  2  3  1  0  0  0  0
  2 13  1  0  0  0  0
  2 14  1  0  0  0  0
  3  5  1  0  0  0  0
  3 15  1  0  0  0  0
  3 16  1  0  0  0  0
  4  6  1  0  0  0  0
  4 17  1  0  0  0  0
  4 18  1  0  0  0  0
  5  7  1  0  0  0  0
  5 19  1  0  0  0  0
  5 20  1  0  0  0  0
  6  8  3  0  0  0  0
  7  9  1  0  0  0  0
  7 21  1  0  0  0  0
  7 22  1  0  0  0  0
  8 10  1  0  0  0  0
  9 23  1  0  0  0  0
  9 24  1  0  0  0  0
  9 25  1  0  0  0  0
 10 26  1  0  0  0  0
 10 27  1  0  0  0  0
 10 28  1  0  0  0  0
M  END
