  2-ETHYL-1,3-BUTADIENE.mol	3404-63-5
  NIST    06301517053D 1   1.00000  -234.62222
Copyright by the U.S. Sec. Commerce on behalf of U.S.A. All rights reserved.
 16 15  0  0  0  0  0  0  0  0999 V2000
    4.2038    1.6444    2.0067 C    0  0  0  0  0  0  0  0  0  0  0  0
    3.2061    2.0844    0.9194 C    0  0  0  0  0  0  0  0  0  0  0  0
    1.7797    1.6550    1.2030 C    0  0  0  0  0  0  0  0  0  0  0  0
    1.2333    0.6036    0.5672 C    0  0  0  0  0  0  0  0  0  0  0  0
    0.9839    2.3865    2.1992 C    0  0  0  0  0  0  0  0  0  0  0  0
    1.3468    3.4924    2.8640 C    0  0  0  0  0  0  0  0  0  0  0  0
    4.2296    0.5521    2.0874 H    0  0  0  0  0  0  0  0  0  0  0  0
    3.9310    2.0433    2.9887 H    0  0  0  0  0  0  0  0  0  0  0  0
    5.2155    1.9916    1.7676 H    0  0  0  0  0  0  0  0  0  0  0  0
    3.5180    1.6634   -0.0433 H    0  0  0  0  0  0  0  0  0  0  0  0
    3.2486    3.1757    0.8062 H    0  0  0  0  0  0  0  0  0  0  0  0
    0.2201    0.2711    0.7800 H    0  0  0  0  0  0  0  0  0  0  0  0
    1.7797    0.0424   -0.1861 H    0  0  0  0  0  0  0  0  0  0  0  0
   -0.0064    1.9713    2.3885 H    0  0  0  0  0  0  0  0  0  0  0  0
    0.6737    3.9657    3.5728 H    0  0  0  0  0  0  0  0  0  0  0  0
    2.3135    3.9688    2.7279 H    0  0  0  0  0  0  0  0  0  0  0  0
  1  2  1  0  0  0  0
  1  7  1  0  0  0  0
  1  8  1  0  0  0  0
  1  9  1  0  0  0  0
  2  3  1  0  0  0  0
  2 10  1  0  0  0  0
  2 11  1  0  0  0  0
  3  4  2  0  0  0  0
  3  5  1  0  0  0  0
  4 12  1  0  0  0  0
  4 13  1  0  0  0  0
  5  6  2  0  0  0  0
  5 14  1  0  0  0  0
  6 15  1  0  0  0  0
  6 16  1  0  0  0  0
M  END
