  2-ETHYL-6-METHYLNAPHTHALENE.mol	7372-86-3
  NIST    07091502053D 1   1.00000  -503.84286
Copyright by the U.S. Sec. Commerce on behalf of U.S.A. All rights reserved.
 27 28  0  0  0  0  0  0  0  0999 V2000
    1.3265    1.2420    0.0619 C    0  0  0  0  0  0  0  0  0  0  0  0
    2.4880    0.5452    0.3302 C    0  0  0  0  0  0  0  0  0  0  0  0
    2.3978   -0.8552    0.5658 C    0  0  0  0  0  0  0  0  0  0  0  0
    1.1893   -1.5111    0.5276 C    0  0  0  0  0  0  0  0  0  0  0  0
   -0.0140   -0.8091    0.2497 C    0  0  0  0  0  0  0  0  0  0  0  0
   -1.2803   -1.4514    0.2032 C    0  0  0  0  0  0  0  0  0  0  0  0
   -2.4406   -0.7550   -0.0658 C    0  0  0  0  0  0  0  0  0  0  0  0
   -2.3513    0.6465   -0.3001 C    0  0  0  0  0  0  0  0  0  0  0  0
   -1.1435    1.3020   -0.2617 C    0  0  0  0  0  0  0  0  0  0  0  0
    0.0613    0.5996    0.0126 C    0  0  0  0  0  0  0  0  0  0  0  0
   -3.7847   -1.4410   -0.1154 C    0  0  0  0  0  0  0  0  0  0  0  0
    3.8377    1.2308    0.3477 C    0  0  0  0  0  0  0  0  0  0  0  0
    4.6581    0.9783   -0.9300 C    0  0  0  0  0  0  0  0  0  0  0  0
    1.3697    2.3154   -0.1165 H    0  0  0  0  0  0  0  0  0  0  0  0
    3.3065   -1.4119    0.7856 H    0  0  0  0  0  0  0  0  0  0  0  0
    1.1405   -2.5815    0.7155 H    0  0  0  0  0  0  0  0  0  0  0  0
   -1.3239   -2.5236    0.3861 H    0  0  0  0  0  0  0  0  0  0  0  0
   -3.2613    1.2037   -0.5124 H    0  0  0  0  0  0  0  0  0  0  0  0
   -1.0959    2.3736   -0.4427 H    0  0  0  0  0  0  0  0  0  0  0  0
   -4.2565   -1.3259   -1.0999 H    0  0  0  0  0  0  0  0  0  0  0  0
   -4.4781   -1.0159    0.6216 H    0  0  0  0  0  0  0  0  0  0  0  0
   -3.6952   -2.5125    0.0889 H    0  0  0  0  0  0  0  0  0  0  0  0
    4.4136    0.8844    1.2167 H    0  0  0  0  0  0  0  0  0  0  0  0
    3.6967    2.3106    0.4793 H    0  0  0  0  0  0  0  0  0  0  0  0
    4.8388   -0.0923   -1.0797 H    0  0  0  0  0  0  0  0  0  0  0  0
    5.6309    1.4808   -0.8764 H    0  0  0  0  0  0  0  0  0  0  0  0
    4.1286    1.3515   -1.8137 H    0  0  0  0  0  0  0  0  0  0  0  0
  1  2  1  0  0  0  0
  1 10  2  0  0  0  0
  1 14  1  0  0  0  0
  2  3  2  0  0  0  0
  2 12  1  0  0  0  0
  3  4  1  0  0  0  0
  3 15  1  0  0  0  0
  4  5  2  0  0  0  0
  4 16  1  0  0  0  0
  5 10  1  0  0  0  0
  5  6  1  0  0  0  0
  6  7  2  0  0  0  0
  6 17  1  0  0  0  0
  7  8  1  0  0  0  0
  7 11  1  0  0  0  0
  8  9  2  0  0  0  0
  8 18  1  0  0  0  0
  9 10  1  0  0  0  0
  9 19  1  0  0  0  0
 11 20  1  0  0  0  0
 11 21  1  0  0  0  0
 11 22  1  0  0  0  0
 12 13  1  0  0  0  0
 12 23  1  0  0  0  0
 12 24  1  0  0  0  0
 13 25  1  0  0  0  0
 13 26  1  0  0  0  0
 13 27  1  0  0  0  0
M  END
