  2-ETHYL BUTYRIC ACID.mol	88-09-5
  NIST    06251423023D 1   1.00000  -386.33628
Copyright by the U.S. Sec. Commerce on behalf of U.S.A. All rights reserved.
 20 19  0  0  0  0  0  0  0  0999 V2000
   51.2901   40.8328   -0.6011 C    0  0  0  0  0  0  0  0  0  0  0  0
   50.2596   39.8668   -0.0421 C    0  0  0  0  0  0  0  0  0  0  0  0
   50.8190   38.4278    0.0148 C    0  0  0  0  0  0  0  0  0  0  0  0
   49.7527   40.3334    1.3408 C    0  0  0  0  0  0  0  0  0  0  0  0
   52.4009   40.9077    0.1828 O    0  0  0  0  0  0  0  0  0  0  0  0
   51.1817   41.4815   -1.6184 O    0  0  0  0  0  0  0  0  0  0  0  0
   51.2648   37.8753   -1.3432 C    0  0  0  0  0  0  0  0  0  0  0  0
   49.1132   41.7259    1.3365 C    0  0  0  0  0  0  0  0  0  0  0  0
   49.4271   39.8972   -0.7554 H    0  0  0  0  0  0  0  0  0  0  0  0
   51.6568   38.3997    0.7222 H    0  0  0  0  0  0  0  0  0  0  0  0
   50.0345   37.7832    0.4326 H    0  0  0  0  0  0  0  0  0  0  0  0
   49.0197   39.5951    1.6917 H    0  0  0  0  0  0  0  0  0  0  0  0
   50.5872   40.3084    2.0521 H    0  0  0  0  0  0  0  0  0  0  0  0
   52.9931   41.5461   -0.2576 H    0  0  0  0  0  0  0  0  0  0  0  0
   51.6178   36.8428   -1.2458 H    0  0  0  0  0  0  0  0  0  0  0  0
   50.4403   37.8814   -2.0660 H    0  0  0  0  0  0  0  0  0  0  0  0
   52.0833   38.4658   -1.7709 H    0  0  0  0  0  0  0  0  0  0  0  0
   48.7406   41.9852    2.3336 H    0  0  0  0  0  0  0  0  0  0  0  0
   49.8309   42.4997    1.0404 H    0  0  0  0  0  0  0  0  0  0  0  0
   48.2685   41.7749    0.6393 H    0  0  0  0  0  0  0  0  0  0  0  0
  1  2  1  0
  1  5  1  0
  1  6  2  0
  2  3  1  0
  2  4  1  0
  3  7  1  0
  4  8  1  0
  2  9  1  0
  3 10  1  0
  3 11  1  0
  4 12  1  0
  4 13  1  0
  5 14  1  0
  7 15  1  0
  7 16  1  0
  7 17  1  0
  8 18  1  0
  8 19  1  0
  8 20  1  0
M  END
