  2-ETHYL-1-HEXENE.mol	1632-16-2
  NIST    06301523143D 1   1.00000  -314.47906
Copyright by the U.S. Sec. Commerce on behalf of U.S.A. All rights reserved.
 24 23  0  0  0  0  0  0  0  0999 V2000
    3.2596    1.6228    2.9648 C    0  0  0  0  0  0  0  0  0  0  0  0
    2.6468    2.7940    2.2202 C    0  0  0  0  0  0  0  0  0  0  0  0
    2.0316    2.5251    0.8599 C    0  0  0  0  0  0  0  0  0  0  0  0
    2.6357    4.0228    2.7495 C    0  0  0  0  0  0  0  0  0  0  0  0
    4.4698    0.9678    2.2643 C    0  0  0  0  0  0  0  0  0  0  0  0
    0.8078    1.5923    0.9014 C    0  0  0  0  0  0  0  0  0  0  0  0
    5.6785    1.8977    2.1032 C    0  0  0  0  0  0  0  0  0  0  0  0
    6.8716    1.2163    1.4256 C    0  0  0  0  0  0  0  0  0  0  0  0
    2.4946    0.8488    3.1216 H    0  0  0  0  0  0  0  0  0  0  0  0
    3.5656    1.9570    3.9644 H    0  0  0  0  0  0  0  0  0  0  0  0
    2.7854    2.0854    0.1910 H    0  0  0  0  0  0  0  0  0  0  0  0
    1.7401    3.4798    0.4062 H    0  0  0  0  0  0  0  0  0  0  0  0
    3.0635    4.2296    3.7280 H    0  0  0  0  0  0  0  0  0  0  0  0
    2.1950    4.8686    2.2263 H    0  0  0  0  0  0  0  0  0  0  0  0
    4.1698    0.5855    1.2783 H    0  0  0  0  0  0  0  0  0  0  0  0
    4.7678    0.0859    2.8487 H    0  0  0  0  0  0  0  0  0  0  0  0
    0.3860    1.4645   -0.1019 H    0  0  0  0  0  0  0  0  0  0  0  0
    1.0658    0.5969    1.2798 H    0  0  0  0  0  0  0  0  0  0  0  0
    0.0252    2.0041    1.5486 H    0  0  0  0  0  0  0  0  0  0  0  0
    5.9804    2.2676    3.0938 H    0  0  0  0  0  0  0  0  0  0  0  0
    5.3837    2.7855    1.5289 H    0  0  0  0  0  0  0  0  0  0  0  0
    7.7212    1.9018    1.3274 H    0  0  0  0  0  0  0  0  0  0  0  0
    7.2113    0.3451    1.9996 H    0  0  0  0  0  0  0  0  0  0  0  0
    6.6097    0.8658    0.4194 H    0  0  0  0  0  0  0  0  0  0  0  0
  1  2  1  0  0  0  0
  1  5  1  0  0  0  0
  1  9  1  0  0  0  0
  1 10  1  0  0  0  0
  2  3  1  0  0  0  0
  2  4  2  0  0  0  0
  3  6  1  0  0  0  0
  3 11  1  0  0  0  0
  3 12  1  0  0  0  0
  4 13  1  0  0  0  0
  4 14  1  0  0  0  0
  5  7  1  0  0  0  0
  5 15  1  0  0  0  0
  5 16  1  0  0  0  0
  6 17  1  0  0  0  0
  6 18  1  0  0  0  0
  6 19  1  0  0  0  0
  7  8  1  0  0  0  0
  7 20  1  0  0  0  0
  7 21  1  0  0  0  0
  8 22  1  0  0  0  0
  8 23  1  0  0  0  0
  8 24  1  0  0  0  0
M  END
