  2-HEXANETHIOL.mol	1679-06-7
  NIST    07201423433D 1   1.00000  -635.26845
Copyright by the U.S. Sec. Commerce on behalf of U.S.A. All rights reserved.
 21 20  0  0  0  0  0  0  0  0999 V2000
   33.9351   30.0335   -0.0787 C    0  0  0  0  0  0  0  0  0  0  0  0
   32.6276   29.2231   -0.0555 C    0  0  0  0  0  0  0  0  0  0  0  0
   33.7296   31.5549   -0.0299 C    0  0  0  0  0  0  0  0  0  0  0  0
   31.7550   29.4284   -1.2953 C    0  0  0  0  0  0  0  0  0  0  0  0
   33.1113   27.4371    0.1438 S    0  0  0  0  0  0  0  0  0  0  0  0
   35.0522   32.3309    0.0383 C    0  0  0  0  0  0  0  0  0  0  0  0
   34.8571   33.8498    0.0789 C    0  0  0  0  0  0  0  0  0  0  0  0
   34.5508   29.7347    0.7802 H    0  0  0  0  0  0  0  0  0  0  0  0
   34.5056   29.7659   -0.9791 H    0  0  0  0  0  0  0  0  0  0  0  0
   32.0608   29.4996    0.8413 H    0  0  0  0  0  0  0  0  0  0  0  0
   33.1664   31.8895   -0.9116 H    0  0  0  0  0  0  0  0  0  0  0  0
   33.1136   31.8122    0.8446 H    0  0  0  0  0  0  0  0  0  0  0  0
   30.8441   28.8218   -1.2465 H    0  0  0  0  0  0  0  0  0  0  0  0
   31.4463   30.4771   -1.3832 H    0  0  0  0  0  0  0  0  0  0  0  0
   32.2988   29.1495   -2.2046 H    0  0  0  0  0  0  0  0  0  0  0  0
   31.8603   26.9271    0.1180 H    0  0  0  0  0  0  0  0  0  0  0  0
   35.6154   32.0093    0.9257 H    0  0  0  0  0  0  0  0  0  0  0  0
   35.6728   32.0641   -0.8287 H    0  0  0  0  0  0  0  0  0  0  0  0
   35.8182   34.3741    0.1274 H    0  0  0  0  0  0  0  0  0  0  0  0
   34.3282   34.2060   -0.8137 H    0  0  0  0  0  0  0  0  0  0  0  0
   34.2688   34.1514    0.9542 H    0  0  0  0  0  0  0  0  0  0  0  0
  1  2  1  0
  1  3  1  0
  2  4  1  0
  2  5  1  0
  3  6  1  0
  6  7  1  0
  1  8  1  0
  1  9  1  0
  2 10  1  0
  3 11  1  0
  3 12  1  0
  4 13  1  0
  4 14  1  0
  4 15  1  0
  5 16  1  0
  6 17  1  0
  6 18  1  0
  7 19  1  0
  7 20  1  0
  7 21  1  0
M  END
