  2-ISOPROPYL-1-PENTENE.mol	16746-02-4
  NIST    08031401583D 1   1.00000  -314.47712
Copyright by the U.S. Sec. Commerce on behalf of U.S.A. All rights reserved.
 24 23  0  0  0  0  0  0  0  0999 V2000
    0.1313   19.1168    0.7751 C    0  0  0  0  0  0  0  0  0  0  0  0
    1.3704   19.9951    0.5747 C    0  0  0  0  0  0  0  0  0  0  0  0
    1.1045   21.1940   -0.3597 C    0  0  0  0  0  0  0  0  0  0  0  0
    2.3204   22.0816   -0.5837 C    0  0  0  0  0  0  0  0  0  0  0  0
    2.4339   23.3848    0.1982 C    0  0  0  0  0  0  0  0  0  0  0  0
    3.2672   21.7279   -1.4601 C    0  0  0  0  0  0  0  0  0  0  0  0
    1.3861   24.4145   -0.2724 C    0  0  0  0  0  0  0  0  0  0  0  0
    2.3497   23.1848    1.7227 C    0  0  0  0  0  0  0  0  0  0  0  0
    0.3466   18.2683    1.4347 H    0  0  0  0  0  0  0  0  0  0  0  0
   -0.6921   19.6863    1.2239 H    0  0  0  0  0  0  0  0  0  0  0  0
   -0.2286   18.7138   -0.1797 H    0  0  0  0  0  0  0  0  0  0  0  0
    2.1881   19.3960    0.1541 H    0  0  0  0  0  0  0  0  0  0  0  0
    1.7271   20.3555    1.5478 H    0  0  0  0  0  0  0  0  0  0  0  0
    0.2720   21.7815    0.0491 H    0  0  0  0  0  0  0  0  0  0  0  0
    0.7562   20.8056   -1.3259 H    0  0  0  0  0  0  0  0  0  0  0  0
    3.4240   23.8055   -0.0243 H    0  0  0  0  0  0  0  0  0  0  0  0
    4.1579   22.3316   -1.6190 H    0  0  0  0  0  0  0  0  0  0  0  0
    3.1891   20.8189   -2.0537 H    0  0  0  0  0  0  0  0  0  0  0  0
    1.5195   25.3668    0.2549 H    0  0  0  0  0  0  0  0  0  0  0  0
    1.4759   24.6035   -1.3476 H    0  0  0  0  0  0  0  0  0  0  0  0
    0.3635   24.0705   -0.0755 H    0  0  0  0  0  0  0  0  0  0  0  0
    2.4910   24.1407    2.2411 H    0  0  0  0  0  0  0  0  0  0  0  0
    3.1191   22.4902    2.0775 H    0  0  0  0  0  0  0  0  0  0  0  0
    1.3721   22.7905    2.0248 H    0  0  0  0  0  0  0  0  0  0  0  0
  1  2  1  0
  2  3  1  0
  3  4  1  0
  4  5  1  0
  4  6  2  0
  5  7  1  0
  5  8  1  0
  1  9  1  0
  1 10  1  0
  1 11  1  0
  2 12  1  0
  2 13  1  0
  3 14  1  0
  3 15  1  0
  5 16  1  0
  6 17  1  0
  6 18  1  0
  7 19  1  0
  7 20  1  0
  7 21  1  0
  8 22  1  0
  8 23  1  0
  8 24  1  0
M  END
