  2-METHYLTHIOPHENE.mol	554-14-3
  NIST    06301516483D 1   1.00000  -592.32146
Copyright by the U.S. Sec. Commerce on behalf of U.S.A. All rights reserved.
 12 12  0  0  0  0  0  0  0  0999 V2000
    4.7418    2.6843    0.8317 C    0  0  0  0  0  0  0  0  0  0  0  0
    3.3178    2.2146    0.7838 C    0  0  0  0  0  0  0  0  0  0  0  0
    2.1730    2.9446    0.9613 C    0  0  0  0  0  0  0  0  0  0  0  0
    2.9216    0.5385    0.4685 S    0  0  0  0  0  0  0  0  0  0  0  0
    0.9737    2.1737    0.8471 C    0  0  0  0  0  0  0  0  0  0  0  0
    1.2160    0.8566    0.5823 C    0  0  0  0  0  0  0  0  0  0  0  0
    5.2625    2.5174   -0.1193 H    0  0  0  0  0  0  0  0  0  0  0  0
    4.7694    3.7580    1.0432 H    0  0  0  0  0  0  0  0  0  0  0  0
    5.3173    2.1743    1.6140 H    0  0  0  0  0  0  0  0  0  0  0  0
    2.1868    4.0101    1.1694 H    0  0  0  0  0  0  0  0  0  0  0  0
   -0.0230    2.5877    0.9582 H    0  0  0  0  0  0  0  0  0  0  0  0
    0.5041    0.0535    0.4471 H    0  0  0  0  0  0  0  0  0  0  0  0
  1  2  1  0  0  0  0
  1  7  1  0  0  0  0
  1  8  1  0  0  0  0
  1  9  1  0  0  0  0
  2  4  1  0  0  0  0
  3  2  2  0  0  0  0
  3 10  1  0  0  0  0
  4  6  1  0  0  0  0
  5  3  1  0  0  0  0
  5 11  1  0  0  0  0
  6  5  2  0  0  0  0
  6 12  1  0  0  0  0
M  END
