
 OpenBabel11291909473D

 16 16  0  0  0  0  0  0  0  0999 V2000
    2.3102   -0.9008    5.0846 C   0  0  0  0  0  0  0  0  0  0  0  0
    1.8260    0.2513    4.2088 C   0  0  2  0  0  0  0  0  0  0  0  0
    2.1120   -0.0059    2.7311 C   0  0  0  0  0  0  0  0  0  0  0  0
    2.6497    1.8285    4.6382 S   0  0  0  0  0  0  0  0  0  0  0  0
    1.9253    1.3495    2.0852 C   0  0  0  0  0  0  0  0  0  0  0  0
    2.8488    2.2658    2.8740 C   0  0  0  0  0  0  0  0  0  0  0  0
    2.0907   -0.6799    6.1504 H   0  0  0  0  0  0  0  0  0  0  0  0
    3.4054   -1.0466    4.9682 H   0  0  0  0  0  0  0  0  0  0  0  0
    1.7874   -1.8393    4.8024 H   0  0  0  0  0  0  0  0  0  0  0  0
    0.7327    0.4033    4.3491 H   0  0  0  0  0  0  0  0  0  0  0  0
    3.1712   -0.3204    2.5862 H   0  0  0  0  0  0  0  0  0  0  0  0
    1.4470   -0.7890    2.3077 H   0  0  0  0  0  0  0  0  0  0  0  0
    2.1611    1.3575    0.9997 H   0  0  0  0  0  0  0  0  0  0  0  0
    0.8679    1.6709    2.2227 H   0  0  0  0  0  0  0  0  0  0  0  0
    2.6000    3.3272    2.6644 H   0  0  0  0  0  0  0  0  0  0  0  0
    3.9056    2.0565    2.5999 H   0  0  0  0  0  0  0  0  0  0  0  0
  1  2  1  0  0  0  0
  1  7  1  0  0  0  0
  1  8  1  0  0  0  0
  1  9  1  0  0  0  0
  2  4  1  0  0  0  0
  2 10  1  1  0  0  0
  3  2  1  0  0  0  0
  3 11  1  0  0  0  0
  3 12  1  0  0  0  0
  4  6  1  0  0  0  0
  5  3  1  0  0  0  0
  5 13  1  0  0  0  0
  5 14  1  0  0  0  0
  6  5  1  0  0  0  0
  6 15  1  0  0  0  0
  6 16  1  0  0  0  0
M  END
