  2-METHYL-2-HEPTENE.mol	627-97-4
  NIST    07011513193D 1   1.00000  -314.48316
Copyright by the U.S. Sec. Commerce on behalf of U.S.A. All rights reserved.
 24 23  0  0  0  0  0  0  0  0999 V2000
    0.7233    1.4331    1.0319 C    0  0  0  0  0  0  0  0  0  0  0  0
    2.0237    1.4197    1.8423 C    0  0  0  0  0  0  0  0  0  0  0  0
    2.7723    2.7582    1.7896 C    0  0  0  0  0  0  0  0  0  0  0  0
    4.0614    2.8109    2.6413 C    0  0  0  0  0  0  0  0  0  0  0  0
    5.1245    1.8323    2.2115 C    0  0  0  0  0  0  0  0  0  0  0  0
    6.2641    2.0817    1.5466 C    0  0  0  0  0  0  0  0  0  0  0  0
    7.2115    0.9606    1.1883 C    0  0  0  0  0  0  0  0  0  0  0  0
    6.7200    3.4484    1.0952 C    0  0  0  0  0  0  0  0  0  0  0  0
    0.2066    0.4680    1.0869 H    0  0  0  0  0  0  0  0  0  0  0  0
    0.9189    1.6464   -0.0263 H    0  0  0  0  0  0  0  0  0  0  0  0
    0.0335    2.2022    1.4011 H    0  0  0  0  0  0  0  0  0  0  0  0
    2.6749    0.6181    1.4701 H    0  0  0  0  0  0  0  0  0  0  0  0
    1.7994    1.1716    2.8901 H    0  0  0  0  0  0  0  0  0  0  0  0
    3.0259    2.9910    0.7459 H    0  0  0  0  0  0  0  0  0  0  0  0
    2.0969    3.5565    2.1306 H    0  0  0  0  0  0  0  0  0  0  0  0
    4.4475    3.8360    2.6243 H    0  0  0  0  0  0  0  0  0  0  0  0
    3.7928    2.6046    3.6885 H    0  0  0  0  0  0  0  0  0  0  0  0
    4.9233    0.7917    2.4698 H    0  0  0  0  0  0  0  0  0  0  0  0
    7.3645    0.9022    0.1012 H    0  0  0  0  0  0  0  0  0  0  0  0
    8.2044    1.1235    1.6316 H    0  0  0  0  0  0  0  0  0  0  0  0
    6.8430   -0.0115    1.5310 H    0  0  0  0  0  0  0  0  0  0  0  0
    6.8338    3.4759    0.0023 H    0  0  0  0  0  0  0  0  0  0  0  0
    6.0337    4.2501    1.3775 H    0  0  0  0  0  0  0  0  0  0  0  0
    7.7078    3.6864    1.5142 H    0  0  0  0  0  0  0  0  0  0  0  0
  1  2  1  0  0  0  0
  1  9  1  0  0  0  0
  1 10  1  0  0  0  0
  1 11  1  0  0  0  0
  2  3  1  0  0  0  0
  2 12  1  0  0  0  0
  2 13  1  0  0  0  0
  3  4  1  0  0  0  0
  3 14  1  0  0  0  0
  3 15  1  0  0  0  0
  4  5  1  0  0  0  0
  4 16  1  0  0  0  0
  4 17  1  0  0  0  0
  5  6  2  0  0  0  0
  5 18  1  0  0  0  0
  6  7  1  0  0  0  0
  6  8  1  0  0  0  0
  7 19  1  0  0  0  0
  7 20  1  0  0  0  0
  7 21  1  0  0  0  0
  8 22  1  0  0  0  0
  8 23  1  0  0  0  0
  8 24  1  0  0  0  0
M  END
