  2-METHYL-2,4-HEXADIENE.mol	28823-41-8
  NIST    08101209283D 1   1.00000  -273.94902
Copyright by the U.S. Sec. Commerce on behalf of U.S.A. All rights reserved.
 19 18  0  0  0  0  0  0  0  0999 V2000
   33.9863   29.8950   -0.0136 C    0  0  0  0  0  0  0  0  0  0  0  0
   32.7879   29.2732   -0.0076 C    0  0  0  0  0  0  0  0  0  0  0  0
   35.3089   29.2892   -0.0002 C    0  0  0  0  0  0  0  0  0  0  0  0
   31.5080   30.0709   -0.0237 C    0  0  0  0  0  0  0  0  0  0  0  0
   32.5969   27.7778    0.0153 C    0  0  0  0  0  0  0  0  0  0  0  0
   36.4540   29.9940   -0.0077 C    0  0  0  0  0  0  0  0  0  0  0  0
   37.8323   29.4033    0.0060 C    0  0  0  0  0  0  0  0  0  0  0  0
   33.9829   30.9860   -0.0304 H    0  0  0  0  0  0  0  0  0  0  0  0
   35.3752   28.2019    0.0171 H    0  0  0  0  0  0  0  0  0  0  0  0
   31.6974   31.1488   -0.0394 H    0  0  0  0  0  0  0  0  0  0  0  0
   30.8948   29.8204   -0.9015 H    0  0  0  0  0  0  0  0  0  0  0  0
   30.8895   29.8470    0.8576 H    0  0  0  0  0  0  0  0  0  0  0  0
   33.5356   27.2197    0.0254 H    0  0  0  0  0  0  0  0  0  0  0  0
   32.0171   27.4748    0.8988 H    0  0  0  0  0  0  0  0  0  0  0  0
   32.0197   27.4475   -0.8600 H    0  0  0  0  0  0  0  0  0  0  0  0
   36.3964   31.0839   -0.0250 H    0  0  0  0  0  0  0  0  0  0  0  0
   37.8014   28.3085    0.0238 H    0  0  0  0  0  0  0  0  0  0  0  0
   38.4094   29.7112   -0.8774 H    0  0  0  0  0  0  0  0  0  0  0  0
   38.4041   29.7401    0.8822 H    0  0  0  0  0  0  0  0  0  0  0  0
  1  2  2  0
  1  3  1  0
  2  4  1  0
  2  5  1  0
  3  6  2  0
  6  7  1  0
  1  8  1  0
  3  9  1  0
  4 10  1  0
  4 11  1  0
  4 12  1  0
  5 13  1  0
  5 14  1  0
  5 15  1  0
  6 16  1  0
  7 17  1  0
  7 18  1  0
  7 19  1  0
M  END
