  2-METHYL-TRANS-3-HEXENE.mol	692-24-0
  NIST    07011511033D 1   1.00000  -275.16827
Copyright by the U.S. Sec. Commerce on behalf of U.S.A. All rights reserved.
 21 20  0  0  0  0  0  0  0  0999 V2000
    1.6161    1.8461    0.6416 C    0  0  0  0  0  0  0  0  0  0  0  0
    2.0183    2.1152    2.1041 C    0  0  0  0  0  0  0  0  0  0  0  0
    3.2549    1.3336    2.4747 C    0  0  0  0  0  0  0  0  0  0  0  0
    0.8548    1.7873    3.0591 C    0  0  0  0  0  0  0  0  0  0  0  0
    4.4235    1.8571    2.8544 C    0  0  0  0  0  0  0  0  0  0  0  0
    5.6515    1.0730    3.2329 C    0  0  0  0  0  0  0  0  0  0  0  0
    6.1065    1.3373    4.6784 C    0  0  0  0  0  0  0  0  0  0  0  0
    1.3889    0.7833    0.4870 H    0  0  0  0  0  0  0  0  0  0  0  0
    0.7225    2.4201    0.3676 H    0  0  0  0  0  0  0  0  0  0  0  0
    2.4231    2.1186   -0.0471 H    0  0  0  0  0  0  0  0  0  0  0  0
    2.2494    3.1854    2.2030 H    0  0  0  0  0  0  0  0  0  0  0  0
    3.1579    0.2456    2.4161 H    0  0  0  0  0  0  0  0  0  0  0  0
    0.5948    0.7220    3.0087 H    0  0  0  0  0  0  0  0  0  0  0  0
   -0.0424    2.3613    2.7972 H    0  0  0  0  0  0  0  0  0  0  0  0
    1.1183    2.0180    4.0971 H    0  0  0  0  0  0  0  0  0  0  0  0
    4.5176    2.9445    2.9154 H    0  0  0  0  0  0  0  0  0  0  0  0
    5.4618    0.0009    3.0938 H    0  0  0  0  0  0  0  0  0  0  0  0
    6.4762    1.3336    2.5521 H    0  0  0  0  0  0  0  0  0  0  0  0
    6.3158    2.4020    4.8387 H    0  0  0  0  0  0  0  0  0  0  0  0
    7.0198    0.7787    4.9137 H    0  0  0  0  0  0  0  0  0  0  0  0
    5.3308    1.0405    5.3931 H    0  0  0  0  0  0  0  0  0  0  0  0
  1  2  1  0  0  0  0
  1  8  1  0  0  0  0
  1  9  1  0  0  0  0
  1 10  1  0  0  0  0
  2  3  1  0  0  0  0
  2  4  1  0  0  0  0
  2 11  1  0  0  0  0
  3  5  2  0  0  0  0
  3 12  1  0  0  0  0
  4 13  1  0  0  0  0
  4 14  1  0  0  0  0
  4 15  1  0  0  0  0
  5  6  1  0  0  0  0
  5 16  1  0  0  0  0
  6  7  1  0  0  0  0
  6 17  1  0  0  0  0
  6 18  1  0  0  0  0
  7 19  1  0  0  0  0
  7 20  1  0  0  0  0
  7 21  1  0  0  0  0
M  END
