  2-METHYL-1,4-PENTADIENE.mol	763-30-4
  NIST    06301517313D 1   1.00000  -234.61722
Copyright by the U.S. Sec. Commerce on behalf of U.S.A. All rights reserved.
 16 15  0  0  0  0  0  0  0  0999 V2000
    3.2892    2.0869    1.7720 C    0  0  0  0  0  0  0  0  0  0  0  0
    1.8129    1.8129    2.0134 C    0  0  0  0  0  0  0  0  0  0  0  0
    4.1870    1.0199    2.3538 C    0  0  0  0  0  0  0  0  0  0  0  0
    1.3483    1.8884    3.4462 C    0  0  0  0  0  0  0  0  0  0  0  0
    0.9842    1.5179    1.0071 C    0  0  0  0  0  0  0  0  0  0  0  0
    5.1174    1.2217    3.2875 C    0  0  0  0  0  0  0  0  0  0  0  0
    3.4653    2.1579    0.6901 H    0  0  0  0  0  0  0  0  0  0  0  0
    3.5621    3.0588    2.2078 H    0  0  0  0  0  0  0  0  0  0  0  0
    4.0311    0.0139    1.9616 H    0  0  0  0  0  0  0  0  0  0  0  0
    1.5110    2.8948    3.8573 H    0  0  0  0  0  0  0  0  0  0  0  0
    0.2843    1.6512    3.5400 H    0  0  0  0  0  0  0  0  0  0  0  0
    1.9158    1.1980    4.0828 H    0  0  0  0  0  0  0  0  0  0  0  0
   -0.0706    1.3144    1.1759 H    0  0  0  0  0  0  0  0  0  0  0  0
    1.3278    1.4713   -0.0237 H    0  0  0  0  0  0  0  0  0  0  0  0
    5.7357    0.4115    3.6648 H    0  0  0  0  0  0  0  0  0  0  0  0
    5.3020    2.2091    3.7068 H    0  0  0  0  0  0  0  0  0  0  0  0
  1  2  1  0  0  0  0
  1  3  1  0  0  0  0
  1  7  1  0  0  0  0
  1  8  1  0  0  0  0
  2  4  1  0  0  0  0
  2  5  2  0  0  0  0
  3  6  2  0  0  0  0
  3  9  1  0  0  0  0
  4 10  1  0  0  0  0
  4 11  1  0  0  0  0
  4 12  1  0  0  0  0
  5 13  1  0  0  0  0
  5 14  1  0  0  0  0
  6 15  1  0  0  0  0
  6 16  1  0  0  0  0
M  END
