  2-METHYLBENZOFURAN.mol	4265-25-2
  NIST    08101209293D 1   1.00000  -422.99780
Copyright by the U.S. Sec. Commerce on behalf of U.S.A. All rights reserved.
 18 19  0  0  0  0  0  0  0  0999 V2000
   -1.8584    1.0751   -1.9184 C    0  0  0  0  0  0  0  0  0  0  0  0
   -2.9798    0.6313   -1.0477 C    0  0  0  0  0  0  0  0  0  0  0  0
   -3.2004   -0.4974   -0.3233 C    0  0  0  0  0  0  0  0  0  0  0  0
   -4.0303    1.5196   -0.9241 O    0  0  0  0  0  0  0  0  0  0  0  0
   -4.4831   -0.3368    0.3179 C    0  0  0  0  0  0  0  0  0  0  0  0
   -4.9451    0.9283   -0.0920 C    0  0  0  0  0  0  0  0  0  0  0  0
   -5.2857   -1.1010    1.1777 C    0  0  0  0  0  0  0  0  0  0  0  0
   -6.1590    1.4726    0.3059 C    0  0  0  0  0  0  0  0  0  0  0  0
   -6.5076   -0.5744    1.5897 C    0  0  0  0  0  0  0  0  0  0  0  0
   -6.9398    0.6939    1.1610 C    0  0  0  0  0  0  0  0  0  0  0  0
   -2.2020    1.2635   -2.9430 H    0  0  0  0  0  0  0  0  0  0  0  0
   -1.4120    2.0058   -1.5471 H    0  0  0  0  0  0  0  0  0  0  0  0
   -1.0809    0.3073   -1.9499 H    0  0  0  0  0  0  0  0  0  0  0  0
   -2.5314   -1.3441   -0.2524 H    0  0  0  0  0  0  0  0  0  0  0  0
   -4.9626   -2.0820    1.5152 H    0  0  0  0  0  0  0  0  0  0  0  0
   -6.4768    2.4528   -0.0345 H    0  0  0  0  0  0  0  0  0  0  0  0
   -7.1418   -1.1531    2.2558 H    0  0  0  0  0  0  0  0  0  0  0  0
   -7.8985    1.0753    1.5010 H    0  0  0  0  0  0  0  0  0  0  0  0
  1  2  1  0
  2  4  1  0
  4  6  1  0
  6  8  2  0
  8 10  1  0
 10  9  2  0
  9  7  1  0
  7  5  2  0
  6  5  1  0
  5  3  1  0
  2  3  2  0
  1 11  1  0
  1 12  1  0
  1 13  1  0
  3 14  1  0
  7 15  1  0
  8 16  1  0
  9 17  1  0
 10 18  1  0
M  END
