  2-METHYL-3-ETHYLPENTANE.mol	609-26-7
  NIST    07011500003D 1   1.00000  -315.70448
Copyright by the U.S. Sec. Commerce on behalf of U.S.A. All rights reserved.
 26 25  0  0  0  0  0  0  0  0999 V2000
    3.6096    2.4453    1.2097 C    0  0  0  0  0  0  0  0  0  0  0  0
    2.4143    2.5821    2.1989 C    0  0  0  0  0  0  0  0  0  0  0  0
    1.5514    3.8279    1.8852 C    0  0  0  0  0  0  0  0  0  0  0  0
    1.5601    1.2941    2.3039 C    0  0  0  0  0  0  0  0  0  0  0  0
    4.4632    1.1951    1.4882 C    0  0  0  0  0  0  0  0  0  0  0  0
    4.5230    3.6850    1.2175 C    0  0  0  0  0  0  0  0  0  0  0  0
    0.3773    4.0678    2.8436 C    0  0  0  0  0  0  0  0  0  0  0  0
    0.8621    0.8468    1.0123 C    0  0  0  0  0  0  0  0  0  0  0  0
    3.1970    2.3475    0.1939 H    0  0  0  0  0  0  0  0  0  0  0  0
    2.8521    2.7406    3.1993 H    0  0  0  0  0  0  0  0  0  0  0  0
    2.1922    4.7160    1.9113 H    0  0  0  0  0  0  0  0  0  0  0  0
    1.1723    3.7637    0.8552 H    0  0  0  0  0  0  0  0  0  0  0  0
    2.1892    0.4754    2.6719 H    0  0  0  0  0  0  0  0  0  0  0  0
    0.8015    1.4434    3.0819 H    0  0  0  0  0  0  0  0  0  0  0  0
    5.3268    1.1609    0.8135 H    0  0  0  0  0  0  0  0  0  0  0  0
    4.8493    1.2038    2.5164 H    0  0  0  0  0  0  0  0  0  0  0  0
    3.9050    0.2641    1.3498 H    0  0  0  0  0  0  0  0  0  0  0  0
    4.9066    3.8830    2.2275 H    0  0  0  0  0  0  0  0  0  0  0  0
    5.3878    3.5278    0.5622 H    0  0  0  0  0  0  0  0  0  0  0  0
    4.0135    4.5884    0.8700 H    0  0  0  0  0  0  0  0  0  0  0  0
    0.7147    4.0860    3.8878 H    0  0  0  0  0  0  0  0  0  0  0  0
   -0.3959    3.2969    2.7588 H    0  0  0  0  0  0  0  0  0  0  0  0
   -0.1000    5.0322    2.6345 H    0  0  0  0  0  0  0  0  0  0  0  0
    1.5805    0.6112    0.2186 H    0  0  0  0  0  0  0  0  0  0  0  0
    0.1853    1.6170    0.6250 H    0  0  0  0  0  0  0  0  0  0  0  0
    0.2642   -0.0545    1.1905 H    0  0  0  0  0  0  0  0  0  0  0  0
  1  2  1  0  0  0  0
  1  5  1  0  0  0  0
  1  6  1  0  0  0  0
  1  9  1  0  0  0  0
  2  3  1  0  0  0  0
  2  4  1  0  0  0  0
  2 10  1  0  0  0  0
  3  7  1  0  0  0  0
  3 11  1  0  0  0  0
  3 12  1  0  0  0  0
  4  8  1  0  0  0  0
  4 13  1  0  0  0  0
  4 14  1  0  0  0  0
  5 15  1  0  0  0  0
  5 16  1  0  0  0  0
  5 17  1  0  0  0  0
  6 18  1  0  0  0  0
  6 19  1  0  0  0  0
  6 20  1  0  0  0  0
  7 21  1  0  0  0  0
  7 22  1  0  0  0  0
  7 23  1  0  0  0  0
  8 24  1  0  0  0  0
  8 25  1  0  0  0  0
  8 26  1  0  0  0  0
M  END
