  2-METHYL-2-HEXENE.mol	2738-19-4
  NIST    06301519333D 1   1.00000  -275.17081
Copyright by the U.S. Sec. Commerce on behalf of U.S.A. All rights reserved.
 21 20  0  0  0  0  0  0  0  0999 V2000
    1.2850    1.1666    4.6598 C    0  0  0  0  0  0  0  0  0  0  0  0
    1.7659    1.8951    5.6794 C    0  0  0  0  0  0  0  0  0  0  0  0
    1.8795    0.9391    3.2958 C    0  0  0  0  0  0  0  0  0  0  0  0
    0.9996    2.0074    6.9768 C    0  0  0  0  0  0  0  0  0  0  0  0
    3.0710    2.6535    5.6615 C    0  0  0  0  0  0  0  0  0  0  0  0
    0.9894    1.4809    2.1595 C    0  0  0  0  0  0  0  0  0  0  0  0
    1.5500    1.1825    0.7657 C    0  0  0  0  0  0  0  0  0  0  0  0
    0.3227    0.6731    4.8138 H    0  0  0  0  0  0  0  0  0  0  0  0
    2.0168   -0.1429    3.1403 H    0  0  0  0  0  0  0  0  0  0  0  0
    2.8775    1.3852    3.2138 H    0  0  0  0  0  0  0  0  0  0  0  0
    0.0615    1.4438    6.9486 H    0  0  0  0  0  0  0  0  0  0  0  0
    0.7595    3.0554    7.2065 H    0  0  0  0  0  0  0  0  0  0  0  0
    1.5945    1.6343    7.8227 H    0  0  0  0  0  0  0  0  0  0  0  0
    3.6091    2.5682    4.7147 H    0  0  0  0  0  0  0  0  0  0  0  0
    2.9003    3.7217    5.8559 H    0  0  0  0  0  0  0  0  0  0  0  0
    3.7376    2.2976    6.4596 H    0  0  0  0  0  0  0  0  0  0  0  0
   -0.0165    1.0477    2.2518 H    0  0  0  0  0  0  0  0  0  0  0  0
    0.8667    2.5644    2.2888 H    0  0  0  0  0  0  0  0  0  0  0  0
    1.6511    0.1025    0.6017 H    0  0  0  0  0  0  0  0  0  0  0  0
    0.8979    1.5792   -0.0208 H    0  0  0  0  0  0  0  0  0  0  0  0
    2.5426    1.6305    0.6320 H    0  0  0  0  0  0  0  0  0  0  0  0
  1  2  2  0  0  0  0
  1  3  1  0  0  0  0
  1  8  1  0  0  0  0
  2  4  1  0  0  0  0
  2  5  1  0  0  0  0
  3  6  1  0  0  0  0
  3  9  1  0  0  0  0
  3 10  1  0  0  0  0
  4 11  1  0  0  0  0
  4 12  1  0  0  0  0
  4 13  1  0  0  0  0
  5 14  1  0  0  0  0
  5 15  1  0  0  0  0
  5 16  1  0  0  0  0
  6  7  1  0  0  0  0
  6 17  1  0  0  0  0
  6 18  1  0  0  0  0
  7 19  1  0  0  0  0
  7 20  1  0  0  0  0
  7 21  1  0  0  0  0
M  END
