
 OpenBabel05241814203D

 20 20  0  0  0  0  0  0  0  0999 V2000
    0.9319    0.1237    0.2329 C   0  0  0  0  0  0  0  0  0  0  0  0
    2.4613    0.0836    0.0894 C   0  0  2  0  0  0  0  0  0  0  0  0
    2.9322    1.0495   -0.9697 C   0  0  0  0  0  0  0  0  0  0  0  0
    2.9760   -1.3221   -0.2958 C   0  0  0  0  0  0  0  0  0  0  0  0
    3.6308    2.0072   -0.6749 O   0  0  0  0  0  0  0  0  0  0  0  0
    2.6098    0.7490   -2.4083 C   0  0  0  0  0  0  0  0  0  0  0  0
    2.5958   -1.7009   -1.7454 C   0  0  0  0  0  0  0  0  0  0  0  0
    3.1446   -0.6536   -2.7363 C   0  0  0  0  0  0  0  0  0  0  0  0
    0.6106    1.1445    0.5312 H   0  0  0  0  0  0  0  0  0  0  0  0
    0.6093   -0.5854    1.0245 H   0  0  0  0  0  0  0  0  0  0  0  0
    0.4069   -0.1410   -0.7063 H   0  0  0  0  0  0  0  0  0  0  0  0
    2.8812    0.3659    1.0806 H   0  0  0  0  0  0  0  0  0  0  0  0
    2.5950   -2.0828    0.4192 H   0  0  0  0  0  0  0  0  0  0  0  0
    4.0867   -1.3215   -0.2249 H   0  0  0  0  0  0  0  0  0  0  0  0
    3.0654    1.5010   -3.0883 H   0  0  0  0  0  0  0  0  0  0  0  0
    1.5094    0.7727   -2.5542 H   0  0  0  0  0  0  0  0  0  0  0  0
    1.4933   -1.7738   -1.8498 H   0  0  0  0  0  0  0  0  0  0  0  0
    3.0229   -2.6972   -1.9893 H   0  0  0  0  0  0  0  0  0  0  0  0
    4.2554   -0.6433   -2.6688 H   0  0  0  0  0  0  0  0  0  0  0  0
    2.8650   -0.9289   -3.7757 H   0  0  0  0  0  0  0  0  0  0  0  0
  1  2  1  0  0  0  0
  1  9  1  0  0  0  0
  1 10  1  0  0  0  0
  1 11  1  0  0  0  0
  2  4  1  0  0  0  0
  2 12  1  1  0  0  0
  3  2  1  0  0  0  0
  3  5  2  0  0  0  0
  4  7  1  0  0  0  0
  4 13  1  0  0  0  0
  4 14  1  0  0  0  0
  6  3  1  0  0  0  0
  6 15  1  0  0  0  0
  6 16  1  0  0  0  0
  7  8  1  0  0  0  0
  7 17  1  0  0  0  0
  7 18  1  0  0  0  0
  8  6  1  0  0  0  0
  8 19  1  0  0  0  0
  8 20  1  0  0  0  0
M  END
