  2-METHYL-2-BUTANOL.mol	75-85-4
  NIST    06201314153D 1   1.00000  -272.98340
Copyright by the U.S. Sec. Commerce on behalf of U.S.A. All rights reserved.
 18 17  0  0  0  0  0  0  0  0999 V2000
    1.8287    0.8713   -0.1172 C    0  0  0  0  0  0  0  0  0  0  0  0
    3.1392    1.3969   -0.3999 O    0  0  0  0  0  0  0  0  0  0  0  0
    0.9611    2.1040    0.1505 C    0  0  0  0  0  0  0  0  0  0  0  0
    1.3107    0.1101   -1.3475 C    0  0  0  0  0  0  0  0  0  0  0  0
    1.8920   -0.0781    1.1026 C    0  0  0  0  0  0  0  0  0  0  0  0
    2.4613    0.5441    2.3814 C    0  0  0  0  0  0  0  0  0  0  0  0
    3.7105    0.6426   -0.6183 H    0  0  0  0  0  0  0  0  0  0  0  0
   -0.0612    1.8118    0.4146 H    0  0  0  0  0  0  0  0  0  0  0  0
    1.3758    2.7027    0.9664 H    0  0  0  0  0  0  0  0  0  0  0  0
    0.9226    2.7358   -0.7428 H    0  0  0  0  0  0  0  0  0  0  0  0
    0.2904   -0.2596   -1.1923 H    0  0  0  0  0  0  0  0  0  0  0  0
    1.9470   -0.7580   -1.5665 H    0  0  0  0  0  0  0  0  0  0  0  0
    1.3133    0.7642   -2.2256 H    0  0  0  0  0  0  0  0  0  0  0  0
    0.8866   -0.4780    1.2931 H    0  0  0  0  0  0  0  0  0  0  0  0
    2.5095   -0.9444    0.8184 H    0  0  0  0  0  0  0  0  0  0  0  0
    2.6027   -0.2194    3.1545 H    0  0  0  0  0  0  0  0  0  0  0  0
    3.4289    1.0153    2.1817 H    0  0  0  0  0  0  0  0  0  0  0  0
    1.7950    1.3094    2.7937 H    0  0  0  0  0  0  0  0  0  0  0  0
  1  2  1  0
  1  3  1  0
  1  4  1  0
  1  5  1  0
  5  6  1  0
  2  7  1  0
  3  8  1  0
  3  9  1  0
  3 10  1  0
  4 11  1  0
  4 12  1  0
  4 13  1  0
  5 14  1  0
  5 15  1  0
  6 16  1  0
  6 17  1  0
  6 18  1  0
M  END
