  2-METHYL-3-ETHYL-2-PENTENE.mol	19780-67-7
  NIST    07011514573D 1   1.00000  -314.48188
Copyright by the U.S. Sec. Commerce on behalf of U.S.A. All rights reserved.
 24 23  0  0  0  0  0  0  0  0999 V2000
    3.7147    0.7527    1.9505 C    0  0  0  0  0  0  0  0  0  0  0  0
    3.6993    1.8843    0.9064 C    0  0  0  0  0  0  0  0  0  0  0  0
    3.2121    3.2106    1.4716 C    0  0  0  0  0  0  0  0  0  0  0  0
    4.3214    4.0453    2.0944 C    0  0  0  0  0  0  0  0  0  0  0  0
    1.9236    3.6072    1.4242 C    0  0  0  0  0  0  0  0  0  0  0  0
    5.0532    4.9346    1.0723 C    0  0  0  0  0  0  0  0  0  0  0  0
    1.4255    4.9304    1.9641 C    0  0  0  0  0  0  0  0  0  0  0  0
    0.8069    2.7803    0.8245 C    0  0  0  0  0  0  0  0  0  0  0  0
    2.7012    0.5340    2.3051 H    0  0  0  0  0  0  0  0  0  0  0  0
    4.1346   -0.1684    1.5288 H    0  0  0  0  0  0  0  0  0  0  0  0
    4.3176    1.0250    2.8248 H    0  0  0  0  0  0  0  0  0  0  0  0
    3.1005    1.5705    0.0453 H    0  0  0  0  0  0  0  0  0  0  0  0
    4.7199    2.0203    0.5227 H    0  0  0  0  0  0  0  0  0  0  0  0
    5.0531    3.3676    2.5558 H    0  0  0  0  0  0  0  0  0  0  0  0
    3.9440    4.6707    2.9097 H    0  0  0  0  0  0  0  0  0  0  0  0
    5.8876    5.4705    1.5404 H    0  0  0  0  0  0  0  0  0  0  0  0
    5.4599    4.3401    0.2457 H    0  0  0  0  0  0  0  0  0  0  0  0
    4.3713    5.6755    0.6404 H    0  0  0  0  0  0  0  0  0  0  0  0
    2.2142    5.5754    2.3555 H    0  0  0  0  0  0  0  0  0  0  0  0
    0.9031    5.4910    1.1759 H    0  0  0  0  0  0  0  0  0  0  0  0
    0.6900    4.7740    2.7665 H    0  0  0  0  0  0  0  0  0  0  0  0
    1.1223    1.7952    0.4762 H    0  0  0  0  0  0  0  0  0  0  0  0
    0.0070    2.6277    1.5632 H    0  0  0  0  0  0  0  0  0  0  0  0
    0.3431    3.3047   -0.0235 H    0  0  0  0  0  0  0  0  0  0  0  0
  1  2  1  0  0  0  0
  1  9  1  0  0  0  0
  1 10  1  0  0  0  0
  1 11  1  0  0  0  0
  2  3  1  0  0  0  0
  2 12  1  0  0  0  0
  2 13  1  0  0  0  0
  3  4  1  0  0  0  0
  3  5  2  0  0  0  0
  4  6  1  0  0  0  0
  4 14  1  0  0  0  0
  4 15  1  0  0  0  0
  5  7  1  0  0  0  0
  5  8  1  0  0  0  0
  6 16  1  0  0  0  0
  6 17  1  0  0  0  0
  6 18  1  0  0  0  0
  7 19  1  0  0  0  0
  7 20  1  0  0  0  0
  7 21  1  0  0  0  0
  8 22  1  0  0  0  0
  8 23  1  0  0  0  0
  8 24  1  0  0  0  0
M  END
