  2-METHYLPYRIDINE.mol	109-06-8
  NIST    07171309563D 1   1.00000  -287.60579
Copyright by the U.S. Sec. Commerce on behalf of U.S.A. All rights reserved.
 14 14  0  0  0  0  0  0  0  0999 V2000
    3.3467   -4.0362    0.0107 C    0  0  0  0  0  0  0  0  0  0  0  0
    3.2963   -2.5294   -0.0550 C    0  0  0  0  0  0  0  0  0  0  0  0
    4.4610   -1.7572   -0.1537 C    0  0  0  0  0  0  0  0  0  0  0  0
    2.0727   -1.9723   -0.0135 N    0  0  0  0  0  0  0  0  0  0  0  0
    4.3555   -0.3685   -0.2112 C    0  0  0  0  0  0  0  0  0  0  0  0
    3.0889    0.2101   -0.1685 C    0  0  0  0  0  0  0  0  0  0  0  0
    1.9859   -0.6398   -0.0695 C    0  0  0  0  0  0  0  0  0  0  0  0
    4.3741   -4.4105   -0.0266 H    0  0  0  0  0  0  0  0  0  0  0  0
    2.8774   -4.3939    0.9341 H    0  0  0  0  0  0  0  0  0  0  0  0
    2.7849   -4.4737   -0.8224 H    0  0  0  0  0  0  0  0  0  0  0  0
    5.4330   -2.2414   -0.1848 H    0  0  0  0  0  0  0  0  0  0  0  0
    5.2471    0.2487   -0.2880 H    0  0  0  0  0  0  0  0  0  0  0  0
    2.9540    1.2868   -0.2101 H    0  0  0  0  0  0  0  0  0  0  0  0
    0.9778   -0.2281   -0.0331 H    0  0  0  0  0  0  0  0  0  0  0  0
  1  2  1  0
  6  5  1  0
  5  3  2  0
  3  2  1  0
  2  4  2  0
  4  7  1  0
  6  7  2  0
  1  8  1  0
  1  9  1  0
  1 10  1  0
  3 11  1  0
  5 12  1  0
  6 13  1  0
  7 14  1  0
M  END
