  2-METHYL-1,5-HEXADIENE.mol	4049-81-4
  NIST    06301518103D 1   1.00000  -273.93024
Copyright by the U.S. Sec. Commerce on behalf of U.S.A. All rights reserved.
 19 18  0  0  0  0  0  0  0  0999 V2000
    2.2855    2.0032    3.0049 C    0  0  0  0  0  0  0  0  0  0  0  0
    1.3479    1.9231    1.8179 C    0  0  0  0  0  0  0  0  0  0  0  0
    3.7811    1.8398    2.6347 C    0  0  0  0  0  0  0  0  0  0  0  0
    1.4079    3.0563    0.8217 C    0  0  0  0  0  0  0  0  0  0  0  0
    0.5032    0.8975    1.6669 C    0  0  0  0  0  0  0  0  0  0  0  0
    4.6821    1.9445    3.8346 C    0  0  0  0  0  0  0  0  0  0  0  0
    5.4931    0.9820    4.2753 C    0  0  0  0  0  0  0  0  0  0  0  0
    2.1559    2.9735    3.5090 H    0  0  0  0  0  0  0  0  0  0  0  0
    2.0211    1.2317    3.7370 H    0  0  0  0  0  0  0  0  0  0  0  0
    4.0585    2.6154    1.9061 H    0  0  0  0  0  0  0  0  0  0  0  0
    3.9275    0.8725    2.1385 H    0  0  0  0  0  0  0  0  0  0  0  0
    0.6731    2.9277    0.0211 H    0  0  0  0  0  0  0  0  0  0  0  0
    2.3992    3.1374    0.3567 H    0  0  0  0  0  0  0  0  0  0  0  0
    1.2136    4.0205    1.3117 H    0  0  0  0  0  0  0  0  0  0  0  0
    0.4541    0.0862    2.3893 H    0  0  0  0  0  0  0  0  0  0  0  0
   -0.1720    0.8315    0.8170 H    0  0  0  0  0  0  0  0  0  0  0  0
    4.6404    2.8913    4.3771 H    0  0  0  0  0  0  0  0  0  0  0  0
    6.1178    1.1162    5.1544 H    0  0  0  0  0  0  0  0  0  0  0  0
    5.5665    0.0212    3.7692 H    0  0  0  0  0  0  0  0  0  0  0  0
  1  2  1  0  0  0  0
  1  3  1  0  0  0  0
  1  8  1  0  0  0  0
  1  9  1  0  0  0  0
  2  4  1  0  0  0  0
  2  5  2  0  0  0  0
  3  6  1  0  0  0  0
  3 10  1  0  0  0  0
  3 11  1  0  0  0  0
  4 12  1  0  0  0  0
  4 13  1  0  0  0  0
  4 14  1  0  0  0  0
  5 15  1  0  0  0  0
  5 16  1  0  0  0  0
  6  7  2  0  0  0  0
  6 17  1  0  0  0  0
  7 18  1  0  0  0  0
  7 19  1  0  0  0  0
M  END
