  2-METHYL-5-ETHYLPYRIDINE.mol	104-90-5
  NIST    07171319573D 1   1.00000  -366.23778
Copyright by the U.S. Sec. Commerce on behalf of U.S.A. All rights reserved.
 20 20  0  0  0  0  0  0  0  0999 V2000
    1.7992    2.1639   -0.9311 C    0  0  0  0  0  0  0  0  0  0  0  0
    2.7164    1.6634    0.1994 C    0  0  0  0  0  0  0  0  0  0  0  0
    2.9752    0.1751    0.1354 C    0  0  0  0  0  0  0  0  0  0  0  0
    3.9598   -0.3774   -0.6891 C    0  0  0  0  0  0  0  0  0  0  0  0
    2.2129   -0.7328    0.8821 C    0  0  0  0  0  0  0  0  0  0  0  0
    4.1297   -1.7591   -0.7326 C    0  0  0  0  0  0  0  0  0  0  0  0
    2.3600   -2.0597    0.8538 N    0  0  0  0  0  0  0  0  0  0  0  0
    3.3083   -2.5763    0.0536 C    0  0  0  0  0  0  0  0  0  0  0  0
    3.4432   -4.0793    0.0537 C    0  0  0  0  0  0  0  0  0  0  0  0
    1.6380    3.2453   -0.8535 H    0  0  0  0  0  0  0  0  0  0  0  0
    2.2361    1.9557   -1.9144 H    0  0  0  0  0  0  0  0  0  0  0  0
    0.8221    1.6698   -0.8911 H    0  0  0  0  0  0  0  0  0  0  0  0
    2.2639    1.9125    1.1674 H    0  0  0  0  0  0  0  0  0  0  0  0
    3.6709    2.2039    0.1552 H    0  0  0  0  0  0  0  0  0  0  0  0
    4.5938    0.2706   -1.2916 H    0  0  0  0  0  0  0  0  0  0  0  0
    1.4358   -0.3579    1.5500 H    0  0  0  0  0  0  0  0  0  0  0  0
    4.8933   -2.2022   -1.3660 H    0  0  0  0  0  0  0  0  0  0  0  0
    3.6968   -4.4418    1.0566 H    0  0  0  0  0  0  0  0  0  0  0  0
    2.4927   -4.5487   -0.2238 H    0  0  0  0  0  0  0  0  0  0  0  0
    4.2161   -4.4175   -0.6433 H    0  0  0  0  0  0  0  0  0  0  0  0
  1  2  1  0
  2  3  1  0
  8  9  1  0
  3  4  2  0
  4  6  1  0
  6  8  2  0
  8  7  1  0
  7  5  2  0
  3  5  1  0
  1 10  1  0
  1 11  1  0
  1 12  1  0
  2 13  1  0
  2 14  1  0
  4 15  1  0
  5 16  1  0
  6 17  1  0
  9 18  1  0
  9 19  1  0
  9 20  1  0
M  END
