  2-MERCAPTOETHANOL.mol	60-24-2
  NIST    06201314163D 1   1.00000  -553.21743
Copyright by the U.S. Sec. Commerce on behalf of U.S.A. All rights reserved.
 10  9  0  0  0  0  0  0  0  0999 V2000
    0.4418   -0.3805    0.4104 S    0  0  0  0  0  0  0  0  0  0  0  0
    1.7988    0.8402    0.1690 C    0  0  0  0  0  0  0  0  0  0  0  0
    1.2998    2.2461   -0.1728 C    0  0  0  0  0  0  0  0  0  0  0  0
    2.3764    3.1529   -0.3709 O    0  0  0  0  0  0  0  0  0  0  0  0
   -0.0205   -0.3545   -0.8591 H    0  0  0  0  0  0  0  0  0  0  0  0
    2.3353    0.8472    1.1251 H    0  0  0  0  0  0  0  0  0  0  0  0
    2.4957    0.4867   -0.5959 H    0  0  0  0  0  0  0  0  0  0  0  0
    0.7514    2.2268   -1.1203 H    0  0  0  0  0  0  0  0  0  0  0  0
    0.6031    2.5947    0.6037 H    0  0  0  0  0  0  0  0  0  0  0  0
    2.7912    3.3144    0.4908 H    0  0  0  0  0  0  0  0  0  0  0  0
  1  2  1  0
  2  3  1  0
  3  4  1  0
  1  5  1  0
  2  6  1  0
  2  7  1  0
  3  8  1  0
  3  9  1  0
  4 10  1  0
M  END
