  2-METHYL-TRANS-3-HEPTENE.mol	692-96-6
  NIST    06301519593D 1   1.00000  -314.48179
Copyright by the U.S. Sec. Commerce on behalf of U.S.A. All rights reserved.
 24 23  0  0  0  0  0  0  0  0999 V2000
    1.4804    1.6271    4.4782 C    0  0  0  0  0  0  0  0  0  0  0  0
    1.4348    2.4386    3.4178 C    0  0  0  0  0  0  0  0  0  0  0  0
    2.0458    1.9784    5.8326 C    0  0  0  0  0  0  0  0  0  0  0  0
    0.8643    2.0912    2.0686 C    0  0  0  0  0  0  0  0  0  0  0  0
    3.2136    1.0437    6.2004 C    0  0  0  0  0  0  0  0  0  0  0  0
    0.9494    1.9321    6.9141 C    0  0  0  0  0  0  0  0  0  0  0  0
    1.8863    2.2029    0.9172 C    0  0  0  0  0  0  0  0  0  0  0  0
    3.0300    1.1884    1.0098 C    0  0  0  0  0  0  0  0  0  0  0  0
    1.0725    0.6163    4.3872 H    0  0  0  0  0  0  0  0  0  0  0  0
    1.8447    3.4478    3.5123 H    0  0  0  0  0  0  0  0  0  0  0  0
    2.4331    3.0062    5.7841 H    0  0  0  0  0  0  0  0  0  0  0  0
    0.4491    1.0743    2.0930 H    0  0  0  0  0  0  0  0  0  0  0  0
    0.0233    2.7664    1.8485 H    0  0  0  0  0  0  0  0  0  0  0  0
    4.0169    1.1033    5.4580 H    0  0  0  0  0  0  0  0  0  0  0  0
    2.8792   -0.0007    6.2485 H    0  0  0  0  0  0  0  0  0  0  0  0
    3.6319    1.3043    7.1802 H    0  0  0  0  0  0  0  0  0  0  0  0
    0.5176    0.9258    6.9913 H    0  0  0  0  0  0  0  0  0  0  0  0
    1.3567    2.1955    7.8979 H    0  0  0  0  0  0  0  0  0  0  0  0
    0.1356    2.6279    6.6826 H    0  0  0  0  0  0  0  0  0  0  0  0
    1.3566    2.0734   -0.0360 H    0  0  0  0  0  0  0  0  0  0  0  0
    2.2985    3.2219    0.9014 H    0  0  0  0  0  0  0  0  0  0  0  0
    3.7362    1.3089    0.1804 H    0  0  0  0  0  0  0  0  0  0  0  0
    2.6478    0.1603    0.9757 H    0  0  0  0  0  0  0  0  0  0  0  0
    3.5853    1.3016    1.9473 H    0  0  0  0  0  0  0  0  0  0  0  0
  1  2  2  0  0  0  0
  1  3  1  0  0  0  0
  1  9  1  0  0  0  0
  2  4  1  0  0  0  0
  2 10  1  0  0  0  0
  3  5  1  0  0  0  0
  3  6  1  0  0  0  0
  3 11  1  0  0  0  0
  4  7  1  0  0  0  0
  4 12  1  0  0  0  0
  4 13  1  0  0  0  0
  5 14  1  0  0  0  0
  5 15  1  0  0  0  0
  5 16  1  0  0  0  0
  6 17  1  0  0  0  0
  6 18  1  0  0  0  0
  6 19  1  0  0  0  0
  7  8  1  0  0  0  0
  7 20  1  0  0  0  0
  7 21  1  0  0  0  0
  8 22  1  0  0  0  0
  8 23  1  0  0  0  0
  8 24  1  0  0  0  0
M  END
