  2-OCTANOL.mol	123-96-6
  NIST    08011214463D 1   1.00000  -390.92088
Copyright by the U.S. Sec. Commerce on behalf of U.S.A. All rights reserved.
 27 26  0  0  0  0  0  0  0  0999 V2000
   86.9293   30.0613    0.0891 C    0  0  0  0  0  0  0  0  0  0  0  0
   85.6469   29.2206    0.0574 C    0  0  0  0  0  0  0  0  0  0  0  0
   85.9220   27.7112    0.0133 C    0  0  0  0  0  0  0  0  0  0  0  0
   86.7059   31.5744    0.0304 C    0  0  0  0  0  0  0  0  0  0  0  0
   84.6478   26.8577   -0.0056 C    0  0  0  0  0  0  0  0  0  0  0  0
   85.9933   32.1397    1.2610 C    0  0  0  0  0  0  0  0  0  0  0  0
   88.0079   32.1533   -0.1098 O    0  0  0  0  0  0  0  0  0  0  0  0
   84.9197   25.3484   -0.0513 C    0  0  0  0  0  0  0  0  0  0  0  0
   83.6413   24.5041   -0.0669 C    0  0  0  0  0  0  0  0  0  0  0  0
   87.5101   29.8322    0.9936 H    0  0  0  0  0  0  0  0  0  0  0  0
   87.5664   29.7934   -0.7638 H    0  0  0  0  0  0  0  0  0  0  0  0
   85.0444   29.5029   -0.8191 H    0  0  0  0  0  0  0  0  0  0  0  0
   85.0278   29.4437    0.9375 H    0  0  0  0  0  0  0  0  0  0  0  0
   86.5355   27.4295    0.8819 H    0  0  0  0  0  0  0  0  0  0  0  0
   86.5292   27.4795   -0.8741 H    0  0  0  0  0  0  0  0  0  0  0  0
   86.1013   31.8022   -0.8656 H    0  0  0  0  0  0  0  0  0  0  0  0
   84.0327   27.1406   -0.8731 H    0  0  0  0  0  0  0  0  0  0  0  0
   84.0417   27.0890    0.8833 H    0  0  0  0  0  0  0  0  0  0  0  0
   85.8945   33.2308    1.1862 H    0  0  0  0  0  0  0  0  0  0  0  0
   84.9839   31.7286    1.3708 H    0  0  0  0  0  0  0  0  0  0  0  0
   86.5649   31.9119    2.1681 H    0  0  0  0  0  0  0  0  0  0  0  0
   87.8989   33.1168   -0.1313 H    0  0  0  0  0  0  0  0  0  0  0  0
   85.5348   25.0653    0.8148 H    0  0  0  0  0  0  0  0  0  0  0  0
   85.5229   25.1162   -0.9405 H    0  0  0  0  0  0  0  0  0  0  0  0
   83.8689   23.4324   -0.0984 H    0  0  0  0  0  0  0  0  0  0  0  0
   83.0219   24.7389   -0.9414 H    0  0  0  0  0  0  0  0  0  0  0  0
   83.0333   24.6894    0.8273 H    0  0  0  0  0  0  0  0  0  0  0  0
  1  2  1  0
  1  4  1  0
  2  3  1  0
  3  5  1  0
  4  6  1  0
  4  7  1  0
  5  8  1  0
  8  9  1  0
  1 10  1  0
  1 11  1  0
  2 12  1  0
  2 13  1  0
  3 14  1  0
  3 15  1  0
  4 16  1  0
  5 17  1  0
  5 18  1  0
  6 19  1  0
  6 20  1  0
  6 21  1  0
  7 22  1  0
  8 23  1  0
  8 24  1  0
  9 25  1  0
  9 26  1  0
  9 27  1  0
M  END
