  2-PENTANETHIOL.mol	2084-19-7
  NIST    08031215013D 1   1.00000  -595.95467
Copyright by the U.S. Sec. Commerce on behalf of U.S.A. All rights reserved.
 18 17  0  0  0  0  0  0  0  0999 V2000
   34.9541   30.0399   -0.0656 C    0  0  0  0  0  0  0  0  0  0  0  0
   33.6338   29.2504   -0.0556 C    0  0  0  0  0  0  0  0  0  0  0  0
   34.7740   31.5638    0.0055 C    0  0  0  0  0  0  0  0  0  0  0  0
   32.7679   29.4852   -1.2950 C    0  0  0  0  0  0  0  0  0  0  0  0
   34.0883   27.4547    0.1224 S    0  0  0  0  0  0  0  0  0  0  0  0
   36.1125   32.3068    0.0808 C    0  0  0  0  0  0  0  0  0  0  0  0
   35.5643   29.7195    0.7897 H    0  0  0  0  0  0  0  0  0  0  0  0
   35.5222   29.7771   -0.9691 H    0  0  0  0  0  0  0  0  0  0  0  0
   33.0692   29.5249    0.8432 H    0  0  0  0  0  0  0  0  0  0  0  0
   34.2148   31.9187   -0.8695 H    0  0  0  0  0  0  0  0  0  0  0  0
   34.1648   31.8168    0.8847 H    0  0  0  0  0  0  0  0  0  0  0  0
   31.8471   28.8929   -1.2559 H    0  0  0  0  0  0  0  0  0  0  0  0
   32.4764   30.5397   -1.3707 H    0  0  0  0  0  0  0  0  0  0  0  0
   33.3094   29.2087   -2.2063 H    0  0  0  0  0  0  0  0  0  0  0  0
   32.8296   26.9645    0.0874 H    0  0  0  0  0  0  0  0  0  0  0  0
   35.9631   33.3912    0.1288 H    0  0  0  0  0  0  0  0  0  0  0  0
   36.6828   32.0083    0.9688 H    0  0  0  0  0  0  0  0  0  0  0  0
   36.7333   32.0941   -0.7979 H    0  0  0  0  0  0  0  0  0  0  0  0
  1  2  1  0
  1  3  1  0
  2  4  1  0
  2  5  1  0
  3  6  1  0
  1  7  1  0
  1  8  1  0
  2  9  1  0
  3 10  1  0
  3 11  1  0
  4 12  1  0
  4 13  1  0
  4 14  1  0
  5 15  1  0
  6 16  1  0
  6 17  1  0
  6 18  1  0
M  END
