  2-PENTYNE.mol	627-21-4
  NIST    07011508253D 1   1.00000  -195.29253
Copyright by the U.S. Sec. Commerce on behalf of U.S.A. All rights reserved.
 13 12  0  0  0  0  0  0  0  0999 V2000
    4.5107    0.7633    0.9536 C    0  0  0  0  0  0  0  0  0  0  0  0
    3.0524    0.8561    1.0647 C    0  0  0  0  0  0  0  0  0  0  0  0
    1.8505    0.9540    1.1622 C    0  0  0  0  0  0  0  0  0  0  0  0
    5.2280    2.0877    1.2759 C    0  0  0  0  0  0  0  0  0  0  0  0
    0.3979    1.0648    1.2785 C    0  0  0  0  0  0  0  0  0  0  0  0
    4.8799   -0.0235    1.6263 H    0  0  0  0  0  0  0  0  0  0  0  0
    4.7809    0.4407   -0.0617 H    0  0  0  0  0  0  0  0  0  0  0  0
    5.0054    2.4124    2.2974 H    0  0  0  0  0  0  0  0  0  0  0  0
    6.3129    1.9683    1.1803 H    0  0  0  0  0  0  0  0  0  0  0  0
    4.9068    2.8807    0.5928 H    0  0  0  0  0  0  0  0  0  0  0  0
   -0.0939    0.9173    0.3090 H    0  0  0  0  0  0  0  0  0  0  0  0
    0.1013    2.0529    1.6517 H    0  0  0  0  0  0  0  0  0  0  0  0
   -0.0064    0.3161    1.9710 H    0  0  0  0  0  0  0  0  0  0  0  0
  1  2  1  0  0  0  0
  1  4  1  0  0  0  0
  1  6  1  0  0  0  0
  1  7  1  0  0  0  0
  2  3  3  0  0  0  0
  3  5  1  0  0  0  0
  4  8  1  0  0  0  0
  4  9  1  0  0  0  0
  4 10  1  0  0  0  0
  5 11  1  0  0  0  0
  5 12  1  0  0  0  0
  5 13  1  0  0  0  0
M  END
