  2-PROPYLNAPHTHALENE.mol	2027-19-2
  NIST    07151403393D 1   1.00000  -503.83844
Copyright by the U.S. Sec. Commerce on behalf of U.S.A. All rights reserved.
 27 28  0  0  0  0  0  0  0  0999 V2000
    5.7984    1.4672   -0.6985 C    0  0  0  0  0  0  0  0  0  0  0  0
    6.9387    1.5228    0.0713 C    0  0  0  0  0  0  0  0  0  0  0  0
    4.5737    0.9944   -0.1546 C    0  0  0  0  0  0  0  0  0  0  0  0
    6.9086    1.1084    1.4256 C    0  0  0  0  0  0  0  0  0  0  0  0
    5.7371    0.6462    1.9827 C    0  0  0  0  0  0  0  0  0  0  0  0
    4.5443    0.5757    1.2150 C    0  0  0  0  0  0  0  0  0  0  0  0
    3.3146    0.1089    1.7527 C    0  0  0  0  0  0  0  0  0  0  0  0
    3.3791    0.9254   -0.9207 C    0  0  0  0  0  0  0  0  0  0  0  0
    2.1929    0.4668   -0.3842 C    0  0  0  0  0  0  0  0  0  0  0  0
    2.1792    0.0571    0.9792 C    0  0  0  0  0  0  0  0  0  0  0  0
    0.9343    0.3650   -1.2178 C    0  0  0  0  0  0  0  0  0  0  0  0
   -0.6598   -1.1649   -2.5109 C    0  0  0  0  0  0  0  0  0  0  0  0
    0.6233   -1.0731   -1.6798 C    0  0  0  0  0  0  0  0  0  0  0  0
    5.8203    1.7856   -1.7384 H    0  0  0  0  0  0  0  0  0  0  0  0
    7.8684    1.8862   -0.3584 H    0  0  0  0  0  0  0  0  0  0  0  0
    7.8149    1.1571    2.0232 H    0  0  0  0  0  0  0  0  0  0  0  0
    5.7094    0.3277    3.0224 H    0  0  0  0  0  0  0  0  0  0  0  0
    3.2834   -0.2042    2.7940 H    0  0  0  0  0  0  0  0  0  0  0  0
    3.4118    1.2492   -1.9597 H    0  0  0  0  0  0  0  0  0  0  0  0
    1.2466   -0.2975    1.4130 H    0  0  0  0  0  0  0  0  0  0  0  0
    0.0778    0.7438   -0.6418 H    0  0  0  0  0  0  0  0  0  0  0  0
    1.0247    1.0121   -2.1000 H    0  0  0  0  0  0  0  0  0  0  0  0
   -0.8577   -2.1961   -2.8247 H    0  0  0  0  0  0  0  0  0  0  0  0
   -1.5293   -0.8174   -1.9392 H    0  0  0  0  0  0  0  0  0  0  0  0
   -0.5920   -0.5485   -3.4159 H    0  0  0  0  0  0  0  0  0  0  0  0
    1.4742   -1.4510   -2.2618 H    0  0  0  0  0  0  0  0  0  0  0  0
    0.5428   -1.7255   -0.8000 H    0  0  0  0  0  0  0  0  0  0  0  0
  9 11  1  0
 11 13  1  0
 12 13  1  0
  9 10  1  0
 10  7  2  0
  7  6  1  0
  6  5  2  0
  5  4  1  0
  4  2  2  0
  2  1  1  0
  1  3  2  0
  6  3  1  0
  3  8  1  0
  9  8  2  0
  1 14  1  0
  2 15  1  0
  4 16  1  0
  5 17  1  0
  7 18  1  0
  8 19  1  0
 10 20  1  0
 11 21  1  0
 11 22  1  0
 12 23  1  0
 12 24  1  0
 12 25  1  0
 13 26  1  0
 13 27  1  0
M  END
