  2-PROPANETHIOL.mol	75-33-2
  NIST    07011509463D 1   1.00000  -517.32881
Copyright by the U.S. Sec. Commerce on behalf of U.S.A. All rights reserved.
 12 11  0  0  0  0  0  0  0  0999 V2000
    3.4457    1.1686    1.7390 C    0  0  0  0  0  0  0  0  0  0  0  0
    2.1534    1.6101    1.0472 C    0  0  0  0  0  0  0  0  0  0  0  0
    0.9011    1.0996    1.7647 C    0  0  0  0  0  0  0  0  0  0  0  0
    2.1009    3.4480    0.7888 S    0  0  0  0  0  0  0  0  0  0  0  0
    4.3282    1.5175    1.1955 H    0  0  0  0  0  0  0  0  0  0  0  0
    3.4970    1.5642    2.7607 H    0  0  0  0  0  0  0  0  0  0  0  0
    3.4868    0.0735    1.8034 H    0  0  0  0  0  0  0  0  0  0  0  0
    2.1532    1.2324    0.0175 H    0  0  0  0  0  0  0  0  0  0  0  0
    0.8492    1.4918    2.7877 H    0  0  0  0  0  0  0  0  0  0  0  0
   -0.0099    1.4002    1.2397 H    0  0  0  0  0  0  0  0  0  0  0  0
    0.9205    0.0038    1.8288 H    0  0  0  0  0  0  0  0  0  0  0  0
    2.1082    3.7840    2.0988 H    0  0  0  0  0  0  0  0  0  0  0  0
  1  2  1  0  0  0  0
  1  5  1  0  0  0  0
  1  6  1  0  0  0  0
  1  7  1  0  0  0  0
  2  3  1  0  0  0  0
  2  4  1  0  0  0  0
  2  8  1  0  0  0  0
  3  9  1  0  0  0  0
  3 10  1  0  0  0  0
  3 11  1  0  0  0  0
  4 12  1  0  0  0  0
M  END
