  3,3-DIMETHYL-1-BUTYNE.mol	917-92-0
  NIST    06301517023D 1   1.00000  -234.59510
Copyright by the U.S. Sec. Commerce on behalf of U.S.A. All rights reserved.
 16 15  0  0  0  0  0  0  0  0999 V2000
    3.2874    1.9294    1.2279 C    0  0  0  0  0  0  0  0  0  0  0  0
    1.9406    1.9854    1.8237 C    0  0  0  0  0  0  0  0  0  0  0  0
    1.4007    3.4316    1.7281 C    0  0  0  0  0  0  0  0  0  0  0  0
    2.0207    1.5558    3.3072 C    0  0  0  0  0  0  0  0  0  0  0  0
    1.0021    1.0270    1.0538 C    0  0  0  0  0  0  0  0  0  0  0  0
    4.3914    1.8834    0.7390 C    0  0  0  0  0  0  0  0  0  0  0  0
    1.3378    3.7583    0.6848 H    0  0  0  0  0  0  0  0  0  0  0  0
    0.3979    3.4878    2.1683 H    0  0  0  0  0  0  0  0  0  0  0  0
    2.0523    4.1294    2.2643 H    0  0  0  0  0  0  0  0  0  0  0  0
    1.0237    1.5914    3.7626 H    0  0  0  0  0  0  0  0  0  0  0  0
    2.4053    0.5348    3.3992 H    0  0  0  0  0  0  0  0  0  0  0  0
    2.6817    2.2208    3.8727 H    0  0  0  0  0  0  0  0  0  0  0  0
    0.9350    1.3085   -0.0022 H    0  0  0  0  0  0  0  0  0  0  0  0
    1.3650   -0.0046    1.1086 H    0  0  0  0  0  0  0  0  0  0  0  0
   -0.0056    1.0619    1.4851 H    0  0  0  0  0  0  0  0  0  0  0  0
    5.3656    1.8427    0.3078 H    0  0  0  0  0  0  0  0  0  0  0  0
  1  2  1  0  0  0  0
  1  6  3  0  0  0  0
  2  3  1  0  0  0  0
  2  4  1  0  0  0  0
  2  5  1  0  0  0  0
  3  7  1  0  0  0  0
  3  8  1  0  0  0  0
  3  9  1  0  0  0  0
  4 10  1  0  0  0  0
  4 11  1  0  0  0  0
  4 12  1  0  0  0  0
  5 13  1  0  0  0  0
  5 14  1  0  0  0  0
  5 15  1  0  0  0  0
  6 16  1  0  0  0  0
M  END
