  3,3-DIMETHYL-1-PENTYNE.mol	918-82-1
  NIST    06201404423D 1   1.00000  -273.90753
Copyright by the U.S. Sec. Commerce on behalf of U.S.A. All rights reserved.
 19 18  0  0  0  0  0  0  0  0999 V2000
   -0.1076    2.9471   -0.0583 C    0  0  0  0  0  0  0  0  0  0  0  0
    0.7745    4.1981   -0.0123 C    0  0  0  0  0  0  0  0  0  0  0  0
    2.3112    3.9450    0.0117 C    0  0  0  0  0  0  0  0  0  0  0  0
    2.7143    3.2004   -1.1947 C    0  0  0  0  0  0  0  0  0  0  0  0
    3.0385    5.3111    0.0209 C    0  0  0  0  0  0  0  0  0  0  0  0
    2.7229    3.1436    1.2695 C    0  0  0  0  0  0  0  0  0  0  0  0
    3.0506    2.5953   -2.1854 C    0  0  0  0  0  0  0  0  0  0  0  0
   -1.1636    3.2283   -0.1382 H    0  0  0  0  0  0  0  0  0  0  0  0
    0.1422    2.3228   -0.9228 H    0  0  0  0  0  0  0  0  0  0  0  0
    0.0014    2.3351    0.8437 H    0  0  0  0  0  0  0  0  0  0  0  0
    0.5268    4.7941    0.8770 H    0  0  0  0  0  0  0  0  0  0  0  0
    0.5510    4.8284   -0.8825 H    0  0  0  0  0  0  0  0  0  0  0  0
    4.1251    5.1759    0.0244 H    0  0  0  0  0  0  0  0  0  0  0  0
    2.7593    5.8799    0.9161 H    0  0  0  0  0  0  0  0  0  0  0  0
    2.7726    5.9036   -0.8607 H    0  0  0  0  0  0  0  0  0  0  0  0
    2.4029    3.6749    2.1741 H    0  0  0  0  0  0  0  0  0  0  0  0
    2.2748    2.1461    1.2775 H    0  0  0  0  0  0  0  0  0  0  0  0
    3.8103    3.0223    1.3092 H    0  0  0  0  0  0  0  0  0  0  0  0
    3.3508    2.0627   -3.0589 H    0  0  0  0  0  0  0  0  0  0  0  0
  1  2  1  0
  2  3  1  0
  3  4  1  0
  3  5  1  0
  3  6  1  0
  4  7  3  0
  1  8  1  0
  1  9  1  0
  1 10  1  0
  2 11  1  0
  2 12  1  0
  5 13  1  0
  5 14  1  0
  5 15  1  0
  6 16  1  0
  6 17  1  0
  6 18  1  0
  7 19  1  0
M  END
