  3,3-DIMETHYLHEXANE.mol	563-16-6
  NIST    06301522143D 1   1.00000  -315.70734
Copyright by the U.S. Sec. Commerce on behalf of U.S.A. All rights reserved.
 26 25  0  0  0  0  0  0  0  0999 V2000
    3.8223    2.8045    2.7343 C    0  0  0  0  0  0  0  0  0  0  0  0
    2.7853    1.9988    1.9065 C    0  0  0  0  0  0  0  0  0  0  0  0
    1.5816    1.6185    2.8146 C    0  0  0  0  0  0  0  0  0  0  0  0
    2.2951    2.8163    0.6938 C    0  0  0  0  0  0  0  0  0  0  0  0
    3.4076    0.6812    1.3993 C    0  0  0  0  0  0  0  0  0  0  0  0
    5.1285    3.2058    2.0307 C    0  0  0  0  0  0  0  0  0  0  0  0
    0.7667    2.7669    3.4241 C    0  0  0  0  0  0  0  0  0  0  0  0
    6.0511    4.0211    2.9446 C    0  0  0  0  0  0  0  0  0  0  0  0
    3.3441    3.7229    3.1023 H    0  0  0  0  0  0  0  0  0  0  0  0
    4.0775    2.2178    3.6305 H    0  0  0  0  0  0  0  0  0  0  0  0
    1.9549    0.9802    3.6285 H    0  0  0  0  0  0  0  0  0  0  0  0
    0.9034    0.9859    2.2239 H    0  0  0  0  0  0  0  0  0  0  0  0
    1.4882    2.2887    0.1697 H    0  0  0  0  0  0  0  0  0  0  0  0
    1.9130    3.7997    0.9907 H    0  0  0  0  0  0  0  0  0  0  0  0
    3.1005    2.9822   -0.0302 H    0  0  0  0  0  0  0  0  0  0  0  0
    3.7957    0.0792    2.2308 H    0  0  0  0  0  0  0  0  0  0  0  0
    2.6590    0.0765    0.8725 H    0  0  0  0  0  0  0  0  0  0  0  0
    4.2331    0.8603    0.7019 H    0  0  0  0  0  0  0  0  0  0  0  0
    4.9056    3.7946    1.1313 H    0  0  0  0  0  0  0  0  0  0  0  0
    5.6648    2.3120    1.6879 H    0  0  0  0  0  0  0  0  0  0  0  0
    1.3650    3.3862    4.1008 H    0  0  0  0  0  0  0  0  0  0  0  0
    0.3445    3.4235    2.6552 H    0  0  0  0  0  0  0  0  0  0  0  0
   -0.0710    2.3663    4.0067 H    0  0  0  0  0  0  0  0  0  0  0  0
    5.5625    4.9443    3.2803 H    0  0  0  0  0  0  0  0  0  0  0  0
    6.3280    3.4508    3.8400 H    0  0  0  0  0  0  0  0  0  0  0  0
    6.9769    4.3026    2.4298 H    0  0  0  0  0  0  0  0  0  0  0  0
  1  2  1  0  0  0  0
  1  6  1  0  0  0  0
  1  9  1  0  0  0  0
  1 10  1  0  0  0  0
  2  3  1  0  0  0  0
  2  4  1  0  0  0  0
  2  5  1  0  0  0  0
  3  7  1  0  0  0  0
  3 11  1  0  0  0  0
  3 12  1  0  0  0  0
  4 13  1  0  0  0  0
  4 14  1  0  0  0  0
  4 15  1  0  0  0  0
  5 16  1  0  0  0  0
  5 17  1  0  0  0  0
  5 18  1  0  0  0  0
  6  8  1  0  0  0  0
  6 19  1  0  0  0  0
  6 20  1  0  0  0  0
  7 21  1  0  0  0  0
  7 22  1  0  0  0  0
  7 23  1  0  0  0  0
  8 24  1  0  0  0  0
  8 25  1  0  0  0  0
  8 26  1  0  0  0  0
M  END
