  3,3-DIETHYLPENTANE.mol	1067-20-5
  NIST    07011506353D 1   1.00000  -355.01006
Copyright by the U.S. Sec. Commerce on behalf of U.S.A. All rights reserved.
 29 28  0  0  0  0  0  0  0  0999 V2000
    3.1826    3.7900    2.5917 C    0  0  0  0  0  0  0  0  0  0  0  0
    2.2528    2.5688    2.8526 C    0  0  0  0  0  0  0  0  0  0  0  0
    1.8009    2.6228    4.3449 C    0  0  0  0  0  0  0  0  0  0  0  0
    2.9978    1.2250    2.6186 C    0  0  0  0  0  0  0  0  0  0  0  0
    0.9663    2.6094    1.9656 C    0  0  0  0  0  0  0  0  0  0  0  0
    3.8761    3.9082    1.2268 C    0  0  0  0  0  0  0  0  0  0  0  0
    0.9130    3.8019    4.7700 C    0  0  0  0  0  0  0  0  0  0  0  0
    4.2558    0.9656    3.4603 C    0  0  0  0  0  0  0  0  0  0  0  0
    1.0318    2.0575    0.5320 C    0  0  0  0  0  0  0  0  0  0  0  0
    2.5994    4.7055    2.7542 H    0  0  0  0  0  0  0  0  0  0  0  0
    3.9589    3.7961    3.3690 H    0  0  0  0  0  0  0  0  0  0  0  0
    1.2662    1.6881    4.5688 H    0  0  0  0  0  0  0  0  0  0  0  0
    2.6920    2.6223    4.9852 H    0  0  0  0  0  0  0  0  0  0  0  0
    2.2840    0.4067    2.7943 H    0  0  0  0  0  0  0  0  0  0  0  0
    3.2765    1.1499    1.5615 H    0  0  0  0  0  0  0  0  0  0  0  0
    0.1815    2.0455    2.4904 H    0  0  0  0  0  0  0  0  0  0  0  0
    0.6061    3.6458    1.9242 H    0  0  0  0  0  0  0  0  0  0  0  0
    4.4693    3.0202    0.9815 H    0  0  0  0  0  0  0  0  0  0  0  0
    3.1640    4.0699    0.4118 H    0  0  0  0  0  0  0  0  0  0  0  0
    4.5604    4.7650    1.2309 H    0  0  0  0  0  0  0  0  0  0  0  0
   -0.0309    3.8309    4.2157 H    0  0  0  0  0  0  0  0  0  0  0  0
    0.6637    3.7174    5.8342 H    0  0  0  0  0  0  0  0  0  0  0  0
    1.4119    4.7672    4.6307 H    0  0  0  0  0  0  0  0  0  0  0  0
    4.6993    0.0018    3.1844 H    0  0  0  0  0  0  0  0  0  0  0  0
    5.0216    1.7332    3.3012 H    0  0  0  0  0  0  0  0  0  0  0  0
    4.0404    0.9283    4.5332 H    0  0  0  0  0  0  0  0  0  0  0  0
    0.0619    2.1988    0.0401 H    0  0  0  0  0  0  0  0  0  0  0  0
    1.7856    2.5552   -0.0843 H    0  0  0  0  0  0  0  0  0  0  0  0
    1.2481    0.9843    0.5163 H    0  0  0  0  0  0  0  0  0  0  0  0
  1  2  1  0  0  0  0
  1  6  1  0  0  0  0
  1 10  1  0  0  0  0
  1 11  1  0  0  0  0
  2  3  1  0  0  0  0
  2  4  1  0  0  0  0
  2  5  1  0  0  0  0
  3  7  1  0  0  0  0
  3 12  1  0  0  0  0
  3 13  1  0  0  0  0
  4  8  1  0  0  0  0
  4 14  1  0  0  0  0
  4 15  1  0  0  0  0
  5  9  1  0  0  0  0
  5 16  1  0  0  0  0
  5 17  1  0  0  0  0
  6 18  1  0  0  0  0
  6 19  1  0  0  0  0
  6 20  1  0  0  0  0
  7 21  1  0  0  0  0
  7 22  1  0  0  0  0
  7 23  1  0  0  0  0
  8 24  1  0  0  0  0
  8 25  1  0  0  0  0
  8 26  1  0  0  0  0
  9 27  1  0  0  0  0
  9 28  1  0  0  0  0
  9 29  1  0  0  0  0
M  END
