  3,4-DIMETHYL-TRANS-2-PENTENE.mol	4914-92-5
  NIST    07011510493D 1   1.00000  -275.16733
Copyright by the U.S. Sec. Commerce on behalf of U.S.A. All rights reserved.
 21 20  0  0  0  0  0  0  0  0999 V2000
    4.4985    2.5379    1.9996 C    0  0  0  0  0  0  0  0  0  0  0  0
    3.1568    1.8716    1.6893 C    0  0  0  0  0  0  0  0  0  0  0  0
    2.0859    2.5747    1.2894 C    0  0  0  0  0  0  0  0  0  0  0  0
    3.1596    0.3706    1.8710 C    0  0  0  0  0  0  0  0  0  0  0  0
    4.4140    4.0249    2.3728 C    0  0  0  0  0  0  0  0  0  0  0  0
    5.4968    2.3418    0.8375 C    0  0  0  0  0  0  0  0  0  0  0  0
    0.7145    2.0738    0.9267 C    0  0  0  0  0  0  0  0  0  0  0  0
    4.9146    2.0104    2.8726 H    0  0  0  0  0  0  0  0  0  0  0  0
    2.1901    3.6557    1.2078 H    0  0  0  0  0  0  0  0  0  0  0  0
    3.3336    0.1113    2.9250 H    0  0  0  0  0  0  0  0  0  0  0  0
    2.2251   -0.1037    1.5637 H    0  0  0  0  0  0  0  0  0  0  0  0
    3.9702   -0.0999    1.2995 H    0  0  0  0  0  0  0  0  0  0  0  0
    5.3950    4.3867    2.7020 H    0  0  0  0  0  0  0  0  0  0  0  0
    3.6974    4.1963    3.1832 H    0  0  0  0  0  0  0  0  0  0  0  0
    4.1124    4.6427    1.5185 H    0  0  0  0  0  0  0  0  0  0  0  0
    5.1473    2.8683   -0.0586 H    0  0  0  0  0  0  0  0  0  0  0  0
    6.4842    2.7393    1.1018 H    0  0  0  0  0  0  0  0  0  0  0  0
    5.6238    1.2857    0.5761 H    0  0  0  0  0  0  0  0  0  0  0  0
    0.4545    2.3626   -0.1012 H    0  0  0  0  0  0  0  0  0  0  0  0
    0.6119    0.9882    1.0008 H    0  0  0  0  0  0  0  0  0  0  0  0
   -0.0488    2.5243    1.5763 H    0  0  0  0  0  0  0  0  0  0  0  0
  1  2  1  0  0  0  0
  1  5  1  0  0  0  0
  1  6  1  0  0  0  0
  1  8  1  0  0  0  0
  2  3  2  0  0  0  0
  2  4  1  0  0  0  0
  3  7  1  0  0  0  0
  3  9  1  0  0  0  0
  4 10  1  0  0  0  0
  4 11  1  0  0  0  0
  4 12  1  0  0  0  0
  5 13  1  0  0  0  0
  5 14  1  0  0  0  0
  5 15  1  0  0  0  0
  6 16  1  0  0  0  0
  6 17  1  0  0  0  0
  6 18  1  0  0  0  0
  7 19  1  0  0  0  0
  7 20  1  0  0  0  0
  7 21  1  0  0  0  0
M  END
