  3,4-DIMETHYL-1-PENTYNE.mol	61064-08-2
  NIST    07161210223D 1   1.00000     0.00000
Copyright by the U.S. Sec. Commerce on behalf of U.S.A. All rights reserved.
 19 18  0  0  1  0  0  0  0  0999 V2000
    1.0047    0.0732    0.0592 C    0  0  0  0  0  0  0  0  0  0  0  0
    2.2128    0.0674    0.0351 C    0  0  0  0  0  0  0  0  0  0  0  0
    3.6825    0.0859    0.0354 C    0  0  0  0  0  0  0  0  0  0  0  0
    4.2387    0.7607   -1.2564 C    0  0  0  0  0  0  0  0  0  0  0  0
    5.7740    0.8133   -1.2584 C    0  0  0  0  0  0  0  0  0  0  0  0
    3.7295    0.0503   -2.5191 C    0  0  0  0  0  0  0  0  0  0  0  0
    4.1871    0.7448    1.3386 C    0  0  0  0  0  0  0  0  0  0  0  0
   -0.0614    0.0726    0.0780 H    0  0  0  0  0  0  0  0  0  0  0  0
    4.0311   -0.9594    0.0298 H    0  0  0  0  0  0  0  0  0  0  0  0
    3.8579    1.7924   -1.2667 H    0  0  0  0  0  0  0  0  0  0  0  0
    6.2030   -0.1928   -1.1596 H    0  0  0  0  0  0  0  0  0  0  0  0
    6.1739    1.4314   -0.4487 H    0  0  0  0  0  0  0  0  0  0  0  0
    6.1377    1.2343   -2.2027 H    0  0  0  0  0  0  0  0  0  0  0  0
    4.0991   -0.9829   -2.5621 H    0  0  0  0  0  0  0  0  0  0  0  0
    4.0808    0.5651   -3.4208 H    0  0  0  0  0  0  0  0  0  0  0  0
    2.6365    0.0180   -2.5473 H    0  0  0  0  0  0  0  0  0  0  0  0
    3.9425    1.8130    1.3517 H    0  0  0  0  0  0  0  0  0  0  0  0
    5.2703    0.6355    1.4431 H    0  0  0  0  0  0  0  0  0  0  0  0
    3.7135    0.2811    2.2091 H    0  0  0  0  0  0  0  0  0  0  0  0
  1  2  3  0  0  0  0
  1  8  1  0  0  0  0
  2  3  1  0  0  0  0
  3  7  1  0  0  0  0
  3  4  1  0  0  0  0
  3  9  1  0  0  0  0
  4  6  1  0  0  0  0
  4  5  1  0  0  0  0
  4 10  1  0  0  0  0
  5 11  1  0  0  0  0
  5 12  1  0  0  0  0
  5 13  1  0  0  0  0
  6 14  1  0  0  0  0
  6 15  1  0  0  0  0
  6 16  1  0  0  0  0
  7 17  1  0  0  0  0
  7 18  1  0  0  0  0
  7 19  1  0  0  0  0
M  END
