  3,4-DIMETHYL-CIS-3-HEXENE.mol	19550-87-9
  NIST    06301522463D 1   1.00000  -314.48133
Copyright by the U.S. Sec. Commerce on behalf of U.S.A. All rights reserved.
 24 23  0  0  0  0  0  0  0  0999 V2000
    4.4077    3.2260    1.1219 C    0  0  0  0  0  0  0  0  0  0  0  0
    5.4069    3.3653    2.2859 C    0  0  0  0  0  0  0  0  0  0  0  0
    3.1046    3.9791    1.3516 C    0  0  0  0  0  0  0  0  0  0  0  0
    2.0005    3.3911    1.8558 C    0  0  0  0  0  0  0  0  0  0  0  0
    3.1960    5.4406    0.9683 C    0  0  0  0  0  0  0  0  0  0  0  0
    1.9542    1.9190    2.2415 C    0  0  0  0  0  0  0  0  0  0  0  0
    0.6842    4.1010    2.0894 C    0  0  0  0  0  0  0  0  0  0  0  0
    1.3887    1.0139    1.1309 C    0  0  0  0  0  0  0  0  0  0  0  0
    4.8786    3.6152    0.2081 H    0  0  0  0  0  0  0  0  0  0  0  0
    4.2249    2.1636    0.9327 H    0  0  0  0  0  0  0  0  0  0  0  0
    5.0035    2.9230    3.2039 H    0  0  0  0  0  0  0  0  0  0  0  0
    6.3535    2.8629    2.0540 H    0  0  0  0  0  0  0  0  0  0  0  0
    5.6317    4.4168    2.4983 H    0  0  0  0  0  0  0  0  0  0  0  0
    3.2894    5.5529   -0.1218 H    0  0  0  0  0  0  0  0  0  0  0  0
    2.3435    6.0399    1.2931 H    0  0  0  0  0  0  0  0  0  0  0  0
    4.0970    5.8961    1.4009 H    0  0  0  0  0  0  0  0  0  0  0  0
    1.3229    1.8125    3.1349 H    0  0  0  0  0  0  0  0  0  0  0  0
    2.9440    1.5532    2.5320 H    0  0  0  0  0  0  0  0  0  0  0  0
    0.4794    4.1989    3.1655 H    0  0  0  0  0  0  0  0  0  0  0  0
    0.6326    5.0980    1.6484 H    0  0  0  0  0  0  0  0  0  0  0  0
   -0.1474    3.5176    1.6716 H    0  0  0  0  0  0  0  0  0  0  0  0
    1.3147   -0.0262    1.4703 H    0  0  0  0  0  0  0  0  0  0  0  0
    0.3871    1.3352    0.8228 H    0  0  0  0  0  0  0  0  0  0  0  0
    2.0294    1.0365    0.2422 H    0  0  0  0  0  0  0  0  0  0  0  0
  1  2  1  0  0  0  0
  1  3  1  0  0  0  0
  1  9  1  0  0  0  0
  1 10  1  0  0  0  0
  2 11  1  0  0  0  0
  2 12  1  0  0  0  0
  2 13  1  0  0  0  0
  3  4  2  0  0  0  0
  3  5  1  0  0  0  0
  4  6  1  0  0  0  0
  4  7  1  0  0  0  0
  5 14  1  0  0  0  0
  5 15  1  0  0  0  0
  5 16  1  0  0  0  0
  6  8  1  0  0  0  0
  6 17  1  0  0  0  0
  6 18  1  0  0  0  0
  7 19  1  0  0  0  0
  7 20  1  0  0  0  0
  7 21  1  0  0  0  0
  8 22  1  0  0  0  0
  8 23  1  0  0  0  0
  8 24  1  0  0  0  0
M  END
