  3,4-DIMETHYL-TRANS-3-HEXENE.mol	19550-88-0
  NIST    07011515153D 1   1.00000  -314.48119
Copyright by the U.S. Sec. Commerce on behalf of U.S.A. All rights reserved.
 24 23  0  0  0  0  0  0  0  0999 V2000
    5.6247    2.0418    1.9975 C    0  0  0  0  0  0  0  0  0  0  0  0
    6.5140    1.8174    0.7606 C    0  0  0  0  0  0  0  0  0  0  0  0
    4.2677    2.6422    1.6577 C    0  0  0  0  0  0  0  0  0  0  0  0
    3.1723    1.9034    1.3841 C    0  0  0  0  0  0  0  0  0  0  0  0
    4.2858    4.1558    1.6422 C    0  0  0  0  0  0  0  0  0  0  0  0
    1.8153    2.5037    1.0442 C    0  0  0  0  0  0  0  0  0  0  0  0
    3.1542    0.3898    1.3996 C    0  0  0  0  0  0  0  0  0  0  0  0
    0.9257    2.7277    2.2809 C    0  0  0  0  0  0  0  0  0  0  0  0
    5.5186    1.0955    2.5378 H    0  0  0  0  0  0  0  0  0  0  0  0
    6.1464    2.7207    2.6860 H    0  0  0  0  0  0  0  0  0  0  0  0
    7.5055    1.4484    1.0490 H    0  0  0  0  0  0  0  0  0  0  0  0
    6.0629    1.0856    0.0814 H    0  0  0  0  0  0  0  0  0  0  0  0
    6.6551    2.7472    0.1972 H    0  0  0  0  0  0  0  0  0  0  0  0
    5.1129    4.5294    1.0225 H    0  0  0  0  0  0  0  0  0  0  0  0
    4.4606    4.5477    2.6546 H    0  0  0  0  0  0  0  0  0  0  0  0
    3.3644    4.6082    1.2707 H    0  0  0  0  0  0  0  0  0  0  0  0
    1.2937    1.8248    0.3554 H    0  0  0  0  0  0  0  0  0  0  0  0
    1.9214    3.4501    0.5040 H    0  0  0  0  0  0  0  0  0  0  0  0
    4.0751   -0.0625    1.7725 H    0  0  0  0  0  0  0  0  0  0  0  0
    2.9809   -0.0022    0.3870 H    0  0  0  0  0  0  0  0  0  0  0  0
    2.3262    0.0162    2.0181 H    0  0  0  0  0  0  0  0  0  0  0  0
    1.3767    3.4593    2.9604 H    0  0  0  0  0  0  0  0  0  0  0  0
   -0.0657    3.0969    1.9924 H    0  0  0  0  0  0  0  0  0  0  0  0
    0.7844    1.7978    2.8441 H    0  0  0  0  0  0  0  0  0  0  0  0
  1  2  1  0  0  0  0
  1  3  1  0  0  0  0
  1  9  1  0  0  0  0
  1 10  1  0  0  0  0
  2 11  1  0  0  0  0
  2 12  1  0  0  0  0
  2 13  1  0  0  0  0
  3  4  2  0  0  0  0
  3  5  1  0  0  0  0
  4  6  1  0  0  0  0
  4  7  1  0  0  0  0
  5 14  1  0  0  0  0
  5 15  1  0  0  0  0
  5 16  1  0  0  0  0
  6  8  1  0  0  0  0
  6 17  1  0  0  0  0
  6 18  1  0  0  0  0
  7 19  1  0  0  0  0
  7 20  1  0  0  0  0
  7 21  1  0  0  0  0
  8 22  1  0  0  0  0
  8 23  1  0  0  0  0
  8 24  1  0  0  0  0
M  END
