
 OpenBabel09241910583D

 26 27  0  0  0  0  0  0  0  0999 V2000
   -1.4117    0.6810    0.3023 C   0  0  0  0  0  0  0  0  0  0  0  0
   -2.0833   -0.4431   -0.0119 C   0  0  0  0  0  0  0  0  0  0  0  0
   -1.6377   -1.4391   -1.0474 C   0  0  0  0  0  0  0  0  0  0  0  0
   -0.1133    1.0765   -0.3608 C   0  0  0  0  0  0  0  0  0  0  0  0
    0.4621    0.1323   -1.4263 C   0  0  2  0  0  0  0  0  0  0  0  0
   -0.3132   -1.1643   -1.7723 C   0  0  1  0  0  0  0  0  0  0  0  0
    0.9704   -1.2314   -0.9351 C   0  0  0  0  0  0  0  0  0  0  0  0
   -1.9674    1.6117    1.3490 C   0  0  0  0  0  0  0  0  0  0  0  0
    0.9366   -1.6181    0.5589 C   0  0  0  0  0  0  0  0  0  0  0  0
    2.1990   -1.7673   -1.6937 C   0  0  0  0  0  0  0  0  0  0  0  0
    1.2269    0.5540   -2.1136 H   0  0  0  0  0  0  0  0  0  0  0  0
   -0.1362   -1.7063   -2.7262 H   0  0  0  0  0  0  0  0  0  0  0  0
   -3.0199   -0.6578    0.4952 H   0  0  0  0  0  0  0  0  0  0  0  0
   -2.4353   -1.4558   -1.8193 H   0  0  0  0  0  0  0  0  0  0  0  0
   -1.5884   -2.4532   -0.5975 H   0  0  0  0  0  0  0  0  0  0  0  0
    0.6694    1.2515    0.4081 H   0  0  0  0  0  0  0  0  0  0  0  0
   -0.3049    2.0474   -0.8648 H   0  0  0  0  0  0  0  0  0  0  0  0
   -2.9245    1.2456    1.7788 H   0  0  0  0  0  0  0  0  0  0  0  0
   -2.1492    2.6100    0.8987 H   0  0  0  0  0  0  0  0  0  0  0  0
   -1.2343    1.7170    2.1760 H   0  0  0  0  0  0  0  0  0  0  0  0
    1.8475   -1.2231    1.0551 H   0  0  0  0  0  0  0  0  0  0  0  0
    0.9435   -2.7246    0.6463 H   0  0  0  0  0  0  0  0  0  0  0  0
    0.0696   -1.2512    1.1293 H   0  0  0  0  0  0  0  0  0  0  0  0
    3.1249   -1.3701   -1.2272 H   0  0  0  0  0  0  0  0  0  0  0  0
    2.2012   -1.4780   -2.7672 H   0  0  0  0  0  0  0  0  0  0  0  0
    2.2167   -2.8759   -1.6348 H   0  0  0  0  0  0  0  0  0  0  0  0
  1  4  1  0  0  0  0
  1  8  1  0  0  0  0
  2  1  2  0  0  0  0
  2 13  1  0  0  0  0
  3  2  1  0  0  0  0
  3 14  1  0  0  0  0
  3 15  1  0  0  0  0
  4  5  1  0  0  0  0
  4 16  1  0  0  0  0
  4 17  1  0  0  0  0
  5  7  1  0  0  0  0
  5 11  1  6  0  0  0
  6  3  1  0  0  0  0
  6  5  1  0  0  0  0
  6  7  1  0  0  0  0
  6 12  1  6  0  0  0
  7  9  1  0  0  0  0
  7 10  1  0  0  0  0
  8 18  1  0  0  0  0
  8 19  1  0  0  0  0
  8 20  1  0  0  0  0
  9 21  1  0  0  0  0
  9 22  1  0  0  0  0
  9 23  1  0  0  0  0
 10 24  1  0  0  0  0
 10 25  1  0  0  0  0
 10 26  1  0  0  0  0
M  END
