  3-DECYNE.mol	2384-85-2
  NIST    07021520393D 1   1.00000  -391.86130
Copyright by the U.S. Sec. Commerce on behalf of U.S.A. All rights reserved.
 28 27  0  0  0  0  0  0  0  0999 V2000
    6.8744    0.8497    2.5433 C    0  0  0  0  0  0  0  0  0  0  0  0
    5.7697    1.7997    2.0338 C    0  0  0  0  0  0  0  0  0  0  0  0
    4.4089    1.1071    1.8972 C    0  0  0  0  0  0  0  0  0  0  0  0
    8.1824    1.4967    2.6703 C    0  0  0  0  0  0  0  0  0  0  0  0
    3.2995    2.0411    1.3971 C    0  0  0  0  0  0  0  0  0  0  0  0
    9.2549    2.0510    2.7586 C    0  0  0  0  0  0  0  0  0  0  0  0
    1.9361    1.3525    1.2527 C    0  0  0  0  0  0  0  0  0  0  0  0
   10.5509    2.7219    2.8930 C    0  0  0  0  0  0  0  0  0  0  0  0
    0.8338    2.2938    0.7563 C    0  0  0  0  0  0  0  0  0  0  0  0
   10.7530    3.3812    4.2701 C    0  0  0  0  0  0  0  0  0  0  0  0
    6.9543   -0.0100    1.8618 H    0  0  0  0  0  0  0  0  0  0  0  0
    6.5727    0.4337    3.5157 H    0  0  0  0  0  0  0  0  0  0  0  0
    6.0768    2.2141    1.0647 H    0  0  0  0  0  0  0  0  0  0  0  0
    5.6885    2.6514    2.7217 H    0  0  0  0  0  0  0  0  0  0  0  0
    4.1159    0.6835    2.8696 H    0  0  0  0  0  0  0  0  0  0  0  0
    4.5023    0.2532    1.2097 H    0  0  0  0  0  0  0  0  0  0  0  0
    3.5940    2.4683    0.4270 H    0  0  0  0  0  0  0  0  0  0  0  0
    3.2035    2.8930    2.0866 H    0  0  0  0  0  0  0  0  0  0  0  0
    1.6426    0.9240    2.2216 H    0  0  0  0  0  0  0  0  0  0  0  0
    2.0311    0.5030    0.5614 H    0  0  0  0  0  0  0  0  0  0  0  0
   11.3580    1.9977    2.7140 H    0  0  0  0  0  0  0  0  0  0  0  0
   10.6520    3.4832    2.1067 H    0  0  0  0  0  0  0  0  0  0  0  0
   -0.1264    1.7734    0.6649 H    0  0  0  0  0  0  0  0  0  0  0  0
    1.0817    2.7107   -0.2276 H    0  0  0  0  0  0  0  0  0  0  0  0
    0.6921    3.1358    1.4451 H    0  0  0  0  0  0  0  0  0  0  0  0
   10.6967    2.6364    5.0704 H    0  0  0  0  0  0  0  0  0  0  0  0
    9.9823    4.1358    4.4573 H    0  0  0  0  0  0  0  0  0  0  0  0
   11.7329    3.8689    4.3208 H    0  0  0  0  0  0  0  0  0  0  0  0
  1  2  1  0  0  0  0
  1  4  1  0  0  0  0
  1 11  1  0  0  0  0
  1 12  1  0  0  0  0
  2  3  1  0  0  0  0
  2 13  1  0  0  0  0
  2 14  1  0  0  0  0
  3  5  1  0  0  0  0
  3 15  1  0  0  0  0
  3 16  1  0  0  0  0
  4  6  3  0  0  0  0
  5  7  1  0  0  0  0
  5 17  1  0  0  0  0
  5 18  1  0  0  0  0
  6  8  1  0  0  0  0
  7  9  1  0  0  0  0
  7 19  1  0  0  0  0
  7 20  1  0  0  0  0
  8 10  1  0  0  0  0
  8 21  1  0  0  0  0
  8 22  1  0  0  0  0
  9 23  1  0  0  0  0
  9 24  1  0  0  0  0
  9 25  1  0  0  0  0
 10 26  1  0  0  0  0
 10 27  1  0  0  0  0
 10 28  1  0  0  0  0
M  END
