  3-ETHYL-1-HEXENE.mol	3404-58-8
  NIST    08031215063D 1   1.00000  -314.47443
Copyright by the U.S. Sec. Commerce on behalf of U.S.A. All rights reserved.
 24 23  0  0  0  0  0  0  0  0999 V2000
    0.2162    0.0409    0.2686 C    0  0  0  0  0  0  0  0  0  0  0  0
    1.4931    0.8488    0.0148 C    0  0  0  0  0  0  0  0  0  0  0  0
    1.2564    2.3644    0.0508 C    0  0  0  0  0  0  0  0  0  0  0  0
    2.5277    3.2153   -0.1756 C    0  0  0  0  0  0  0  0  0  0  0  0
    3.0972    2.9818   -1.5540 C    0  0  0  0  0  0  0  0  0  0  0  0
    2.2624    4.7289    0.0268 C    0  0  0  0  0  0  0  0  0  0  0  0
    4.3189    2.5212   -1.8267 C    0  0  0  0  0  0  0  0  0  0  0  0
    1.8857    5.1345    1.4570 C    0  0  0  0  0  0  0  0  0  0  0  0
    0.4130   -1.0370    0.2405 H    0  0  0  0  0  0  0  0  0  0  0  0
   -0.2152    0.2750    1.2499 H    0  0  0  0  0  0  0  0  0  0  0  0
   -0.5484    0.2589   -0.4875 H    0  0  0  0  0  0  0  0  0  0  0  0
    1.9234    0.5668   -0.9542 H    0  0  0  0  0  0  0  0  0  0  0  0
    2.2485    0.5854    0.7692 H    0  0  0  0  0  0  0  0  0  0  0  0
    0.8136    2.6275    1.0201 H    0  0  0  0  0  0  0  0  0  0  0  0
    0.5074    2.6355   -0.7096 H    0  0  0  0  0  0  0  0  0  0  0  0
    3.2834    2.9050    0.5626 H    0  0  0  0  0  0  0  0  0  0  0  0
    2.4303    3.2344   -2.3824 H    0  0  0  0  0  0  0  0  0  0  0  0
    3.1670    5.2747   -0.2703 H    0  0  0  0  0  0  0  0  0  0  0  0
    1.4720    5.0498   -0.6676 H    0  0  0  0  0  0  0  0  0  0  0  0
    4.6692    2.3923   -2.8476 H    0  0  0  0  0  0  0  0  0  0  0  0
    5.0191    2.2554   -1.0369 H    0  0  0  0  0  0  0  0  0  0  0  0
    1.7885    6.2233    1.5364 H    0  0  0  0  0  0  0  0  0  0  0  0
    0.9334    4.6978    1.7761 H    0  0  0  0  0  0  0  0  0  0  0  0
    2.6543    4.8177    2.1731 H    0  0  0  0  0  0  0  0  0  0  0  0
  1  2  1  0
  2  3  1  0
  3  4  1  0
  4  5  1  0
  4  6  1  0
  5  7  2  0
  6  8  1  0
  1  9  1  0
  1 10  1  0
  1 11  1  0
  2 12  1  0
  2 13  1  0
  3 14  1  0
  3 15  1  0
  4 16  1  0
  5 17  1  0
  6 18  1  0
  6 19  1  0
  7 20  1  0
  7 21  1  0
  8 22  1  0
  8 23  1  0
  8 24  1  0
M  END
