  3-ETHYL-TRANS-2-HEXENE.mol	66225-15-8
  NIST    08011209273D 1   1.00000     0.00000
Copyright by the U.S. Sec. Commerce on behalf of U.S.A. All rights reserved.
 24 23  0  0  0  0  0  0  0  0999 V2000
    0.7609    0.7293   -2.1083 C    0  0  0  0  0  0  0  0  0  0  0  0
    2.2124    0.4031   -1.8930 C    0  0  0  0  0  0  0  0  0  0  0  0
    3.2490    1.2398   -1.7281 C    0  0  0  0  0  0  0  0  0  0  0  0
    4.6459    0.6738   -1.5021 C    0  0  0  0  0  0  0  0  0  0  0  0
    4.9320    0.1757   -0.0628 C    0  0  0  0  0  0  0  0  0  0  0  0
    6.3332   -0.4471    0.0161 C    0  0  0  0  0  0  0  0  0  0  0  0
    4.7625    1.2754    0.9939 C    0  0  0  0  0  0  0  0  0  0  0  0
    3.1491    2.7462   -1.7654 C    0  0  0  0  0  0  0  0  0  0  0  0
    0.1380    0.2766   -1.3243 H    0  0  0  0  0  0  0  0  0  0  0  0
    0.4046    0.3179   -3.0630 H    0  0  0  0  0  0  0  0  0  0  0  0
    0.5565    1.8032   -2.1144 H    0  0  0  0  0  0  0  0  0  0  0  0
    2.4327   -0.6667   -1.8737 H    0  0  0  0  0  0  0  0  0  0  0  0
    5.3984    1.4318   -1.7647 H    0  0  0  0  0  0  0  0  0  0  0  0
    4.8109   -0.1695   -2.1858 H    0  0  0  0  0  0  0  0  0  0  0  0
    4.1962   -0.6123    0.1554 H    0  0  0  0  0  0  0  0  0  0  0  0
    7.1085    0.3012   -0.1951 H    0  0  0  0  0  0  0  0  0  0  0  0
    6.4520   -1.2618   -0.7086 H    0  0  0  0  0  0  0  0  0  0  0  0
    6.5304   -0.8548    1.0149 H    0  0  0  0  0  0  0  0  0  0  0  0
    5.4534    2.1093    0.8104 H    0  0  0  0  0  0  0  0  0  0  0  0
    4.9730    0.8879    1.9979 H    0  0  0  0  0  0  0  0  0  0  0  0
    3.7426    1.6741    0.9986 H    0  0  0  0  0  0  0  0  0  0  0  0
    3.5813    3.1942   -0.8615 H    0  0  0  0  0  0  0  0  0  0  0  0
    2.1229    3.1095   -1.8602 H    0  0  0  0  0  0  0  0  0  0  0  0
    3.7239    3.1463   -2.6127 H    0  0  0  0  0  0  0  0  0  0  0  0
  1  2  1  0  0  0  0
  1  9  1  0  0  0  0
  1 10  1  0  0  0  0
  1 11  1  0  0  0  0
  2  3  2  0  0  0  0
  2 12  1  0  0  0  0
  3  7  1  0  0  0  0
  3  4  1  0  0  0  0
  4  5  1  0  0  0  0
  4 13  1  0  0  0  0
  4 14  1  0  0  0  0
  5  6  1  0  0  0  0
  5 15  1  0  0  0  0
  5 16  1  0  0  0  0
  6 17  1  0  0  0  0
  6 18  1  0  0  0  0
  6 19  1  0  0  0  0
  7  8  1  0  0  0  0
  7 20  1  0  0  0  0
  7 21  1  0  0  0  0
  8 22  1  0  0  0  0
  8 23  1  0  0  0  0
  8 24  1  0  0  0  0
M  END
