  3-ETHYL-1-PENTENE.mol	4038-04-4
  NIST    07021515483D 1   1.00000  -275.15673
Copyright by the U.S. Sec. Commerce on behalf of U.S.A. All rights reserved.
 21 20  0  0  0  0  0  0  0  0999 V2000
    1.2055    0.9501    2.0777 C    0  0  0  0  0  0  0  0  0  0  0  0
    2.0494    2.1650    2.5643 C    0  0  0  0  0  0  0  0  0  0  0  0
    3.5394    2.0872    2.1484 C    0  0  0  0  0  0  0  0  0  0  0  0
    1.9645    2.2953    4.0666 C    0  0  0  0  0  0  0  0  0  0  0  0
    0.4727    1.1745    0.7484 C    0  0  0  0  0  0  0  0  0  0  0  0
    3.8142    2.0296    0.6414 C    0  0  0  0  0  0  0  0  0  0  0  0
    1.5021    3.3554    4.7301 C    0  0  0  0  0  0  0  0  0  0  0  0
    0.4552    0.7130    2.8425 H    0  0  0  0  0  0  0  0  0  0  0  0
    1.8506    0.0628    2.0041 H    0  0  0  0  0  0  0  0  0  0  0  0
    1.6207    3.0784    2.1252 H    0  0  0  0  0  0  0  0  0  0  0  0
    4.0528    2.9606    2.5711 H    0  0  0  0  0  0  0  0  0  0  0  0
    3.9912    1.2082    2.6314 H    0  0  0  0  0  0  0  0  0  0  0  0
    2.3221    1.4310    4.6319 H    0  0  0  0  0  0  0  0  0  0  0  0
   -0.2274    2.0151    0.8285 H    0  0  0  0  0  0  0  0  0  0  0  0
   -0.1068    0.2873    0.4669 H    0  0  0  0  0  0  0  0  0  0  0  0
    1.1609    1.3965   -0.0732 H    0  0  0  0  0  0  0  0  0  0  0  0
    4.8926    2.0608    0.4472 H    0  0  0  0  0  0  0  0  0  0  0  0
    3.4281    1.1110    0.1866 H    0  0  0  0  0  0  0  0  0  0  0  0
    3.3592    2.8799    0.1185 H    0  0  0  0  0  0  0  0  0  0  0  0
    1.4702    3.3838    5.8162 H    0  0  0  0  0  0  0  0  0  0  0  0
    1.1355    4.2394    4.2111 H    0  0  0  0  0  0  0  0  0  0  0  0
  1  2  1  0  0  0  0
  1  5  1  0  0  0  0
  1  8  1  0  0  0  0
  1  9  1  0  0  0  0
  2  3  1  0  0  0  0
  2  4  1  0  0  0  0
  2 10  1  0  0  0  0
  3  6  1  0  0  0  0
  3 11  1  0  0  0  0
  3 12  1  0  0  0  0
  4  7  2  0  0  0  0
  4 13  1  0  0  0  0
  5 14  1  0  0  0  0
  5 15  1  0  0  0  0
  5 16  1  0  0  0  0
  6 17  1  0  0  0  0
  6 18  1  0  0  0  0
  6 19  1  0  0  0  0
  7 20  1  0  0  0  0
  7 21  1  0  0  0  0
M  END
