  3-ETHYLPENTANE.mol	617-78-7
  NIST    06301519493D 1   1.00000  -276.39231
Copyright by the U.S. Sec. Commerce on behalf of U.S.A. All rights reserved.
 23 22  0  0  0  0  0  0  0  0999 V2000
    4.6673    4.1812    1.1843 C    0  0  0  0  0  0  0  0  0  0  0  0
    3.3698    3.4778    1.6409 C    0  0  0  0  0  0  0  0  0  0  0  0
    3.3392    1.9882    1.2016 C    0  0  0  0  0  0  0  0  0  0  0  0
    2.1454    4.2716    1.1362 C    0  0  0  0  0  0  0  0  0  0  0  0
    5.9330    3.7217    1.9170 C    0  0  0  0  0  0  0  0  0  0  0  0
    2.8019    1.0163    2.2605 C    0  0  0  0  0  0  0  0  0  0  0  0
    0.7763    3.7482    1.5849 C    0  0  0  0  0  0  0  0  0  0  0  0
    4.7925    4.0328    0.1013 H    0  0  0  0  0  0  0  0  0  0  0  0
    4.5546    5.2646    1.3292 H    0  0  0  0  0  0  0  0  0  0  0  0
    3.3534    3.5089    2.7428 H    0  0  0  0  0  0  0  0  0  0  0  0
    2.7448    1.8964    0.2813 H    0  0  0  0  0  0  0  0  0  0  0  0
    4.3519    1.6654    0.9287 H    0  0  0  0  0  0  0  0  0  0  0  0
    2.2483    5.3139    1.4690 H    0  0  0  0  0  0  0  0  0  0  0  0
    2.1768    4.3018    0.0366 H    0  0  0  0  0  0  0  0  0  0  0  0
    6.8167    4.2550    1.5480 H    0  0  0  0  0  0  0  0  0  0  0  0
    5.8546    3.9138    2.9943 H    0  0  0  0  0  0  0  0  0  0  0  0
    6.1202    2.6495    1.7862 H    0  0  0  0  0  0  0  0  0  0  0  0
    1.7804    1.2653    2.5664 H    0  0  0  0  0  0  0  0  0  0  0  0
    3.4279    1.0368    3.1611 H    0  0  0  0  0  0  0  0  0  0  0  0
    2.7951   -0.0140    1.8850 H    0  0  0  0  0  0  0  0  0  0  0  0
    0.7056    3.7019    2.6788 H    0  0  0  0  0  0  0  0  0  0  0  0
   -0.0253    4.4061    1.2292 H    0  0  0  0  0  0  0  0  0  0  0  0
    0.5722    2.7451    1.1948 H    0  0  0  0  0  0  0  0  0  0  0  0
  1  2  1  0  0  0  0
  1  5  1  0  0  0  0
  1  8  1  0  0  0  0
  1  9  1  0  0  0  0
  2  3  1  0  0  0  0
  2  4  1  0  0  0  0
  2 10  1  0  0  0  0
  3  6  1  0  0  0  0
  3 11  1  0  0  0  0
  3 12  1  0  0  0  0
  4  7  1  0  0  0  0
  4 13  1  0  0  0  0
  4 14  1  0  0  0  0
  5 15  1  0  0  0  0
  5 16  1  0  0  0  0
  5 17  1  0  0  0  0
  6 18  1  0  0  0  0
  6 19  1  0  0  0  0
  6 20  1  0  0  0  0
  7 21  1  0  0  0  0
  7 22  1  0  0  0  0
  7 23  1  0  0  0  0
M  END
