  3-ETHYL-1-PENTYNE.mol	21020-26-8
  NIST    06181211513D 1   1.00000  -273.90738
Copyright by the U.S. Sec. Commerce on behalf of U.S.A. All rights reserved.
 19 18  0  0  0  0  0  0  0  0999 V2000
    1.0391   -0.0493    0.0189 C    0  0  0  0  0  0  0  0  0  0  0  0
    2.2457   -0.0314   -0.0445 C    0  0  0  0  0  0  0  0  0  0  0  0
    3.7122    0.0195   -0.1142 C    0  0  0  0  0  0  0  0  0  0  0  0
    4.1871    0.4071   -1.5369 C    0  0  0  0  0  0  0  0  0  0  0  0
    3.7382   -0.5703   -2.6265 C    0  0  0  0  0  0  0  0  0  0  0  0
    4.2594    0.9682    0.9856 C    0  0  0  0  0  0  0  0  0  0  0  0
    5.7799    0.9147    1.1678 C    0  0  0  0  0  0  0  0  0  0  0  0
   -0.0254   -0.0708    0.0765 H    0  0  0  0  0  0  0  0  0  0  0  0
    4.0941   -0.9920    0.0998 H    0  0  0  0  0  0  0  0  0  0  0  0
    5.2819    0.4656   -1.5312 H    0  0  0  0  0  0  0  0  0  0  0  0
    3.8174    1.4158   -1.7640 H    0  0  0  0  0  0  0  0  0  0  0  0
    4.1226   -1.5800   -2.4352 H    0  0  0  0  0  0  0  0  0  0  0  0
    4.1058   -0.2552   -3.6095 H    0  0  0  0  0  0  0  0  0  0  0  0
    2.6462   -0.6324   -2.6754 H    0  0  0  0  0  0  0  0  0  0  0  0
    3.7738    0.7052    1.9328 H    0  0  0  0  0  0  0  0  0  0  0  0
    3.9425    1.9935    0.7533 H    0  0  0  0  0  0  0  0  0  0  0  0
    6.1187   -0.1071    1.3801 H    0  0  0  0  0  0  0  0  0  0  0  0
    6.0865    1.5461    2.0092 H    0  0  0  0  0  0  0  0  0  0  0  0
    6.3182    1.2678    0.2820 H    0  0  0  0  0  0  0  0  0  0  0  0
  1  2  3  0  0  0  0
  1  8  1  0  0  0  0
  2  3  1  0  0  0  0
  3  6  1  0  0  0  0
  3  4  1  0  0  0  0
  3  9  1  0  0  0  0
  4  5  1  0  0  0  0
  4 10  1  0  0  0  0
  4 11  1  0  0  0  0
  5 12  1  0  0  0  0
  5 13  1  0  0  0  0
  5 14  1  0  0  0  0
  6  7  1  0  0  0  0
  6 15  1  0  0  0  0
  6 16  1  0  0  0  0
  7 17  1  0  0  0  0
  7 18  1  0  0  0  0
  7 19  1  0  0  0  0
M  END
