  3-ETHYL-2-PENTENE.mol	816-79-5
  NIST    06301519533D 1   1.00000  -275.16748
Copyright by the U.S. Sec. Commerce on behalf of U.S.A. All rights reserved.
 21 20  0  0  0  0  0  0  0  0999 V2000
    3.3238    0.6191    2.4045 C    0  0  0  0  0  0  0  0  0  0  0  0
    3.1112    1.8447    1.5322 C    0  0  0  0  0  0  0  0  0  0  0  0
    4.3896    2.5993    1.2079 C    0  0  0  0  0  0  0  0  0  0  0  0
    1.9067    2.2449    1.0970 C    0  0  0  0  0  0  0  0  0  0  0  0
    3.3476    0.9413    3.9106 C    0  0  0  0  0  0  0  0  0  0  0  0
    4.2549    3.9097    0.4299 C    0  0  0  0  0  0  0  0  0  0  0  0
    0.5719    1.5988    1.3514 C    0  0  0  0  0  0  0  0  0  0  0  0
    4.2777    0.1475    2.1295 H    0  0  0  0  0  0  0  0  0  0  0  0
    2.5503   -0.1328    2.2138 H    0  0  0  0  0  0  0  0  0  0  0  0
    5.0549    1.9195    0.6520 H    0  0  0  0  0  0  0  0  0  0  0  0
    4.9224    2.7987    2.1506 H    0  0  0  0  0  0  0  0  0  0  0  0
    1.8545    3.1463    0.4882 H    0  0  0  0  0  0  0  0  0  0  0  0
    4.1224    1.6784    4.1512 H    0  0  0  0  0  0  0  0  0  0  0  0
    2.3864    1.3534    4.2370 H    0  0  0  0  0  0  0  0  0  0  0  0
    3.5503    0.0403    4.5015 H    0  0  0  0  0  0  0  0  0  0  0  0
    5.2407    4.3600    0.2697 H    0  0  0  0  0  0  0  0  0  0  0  0
    3.6383    4.6368    0.9704 H    0  0  0  0  0  0  0  0  0  0  0  0
    3.7997    3.7497   -0.5540 H    0  0  0  0  0  0  0  0  0  0  0  0
   -0.1014    2.2901    1.8774 H    0  0  0  0  0  0  0  0  0  0  0  0
    0.6404    0.6876    1.9517 H    0  0  0  0  0  0  0  0  0  0  0  0
    0.0736    1.3417    0.4063 H    0  0  0  0  0  0  0  0  0  0  0  0
  1  2  1  0  0  0  0
  1  5  1  0  0  0  0
  1  8  1  0  0  0  0
  1  9  1  0  0  0  0
  2  3  1  0  0  0  0
  2  4  2  0  0  0  0
  3  6  1  0  0  0  0
  3 10  1  0  0  0  0
  3 11  1  0  0  0  0
  4  7  1  0  0  0  0
  4 12  1  0  0  0  0
  5 13  1  0  0  0  0
  5 14  1  0  0  0  0
  5 15  1  0  0  0  0
  6 16  1  0  0  0  0
  6 17  1  0  0  0  0
  6 18  1  0  0  0  0
  7 19  1  0  0  0  0
  7 20  1  0  0  0  0
  7 21  1  0  0  0  0
M  END
