  3-ETHYLPYRIDINE.mol	536-78-7
  NIST    06201314163D 1   1.00000  -326.91712
Copyright by the U.S. Sec. Commerce on behalf of U.S.A. All rights reserved.
 17 17  0  0  0  0  0  0  0  0999 V2000
    1.8558    2.1412   -0.9902 C    0  0  0  0  0  0  0  0  0  0  0  0
    2.6756    1.6371    0.2115 C    0  0  0  0  0  0  0  0  0  0  0  0
    2.9563    0.1523    0.1513 C    0  0  0  0  0  0  0  0  0  0  0  0
    4.0264   -0.3715   -0.5825 C    0  0  0  0  0  0  0  0  0  0  0  0
    2.1310   -0.7715    0.8070 C    0  0  0  0  0  0  0  0  0  0  0  0
    4.2164   -1.7507   -0.6315 C    0  0  0  0  0  0  0  0  0  0  0  0
    2.2938   -2.0988    0.7729 N    0  0  0  0  0  0  0  0  0  0  0  0
    3.3235   -2.5706    0.0598 C    0  0  0  0  0  0  0  0  0  0  0  0
    1.6745    3.2192   -0.9137 H    0  0  0  0  0  0  0  0  0  0  0  0
    2.3810    1.9514   -1.9333 H    0  0  0  0  0  0  0  0  0  0  0  0
    0.8855    1.6350   -1.0429 H    0  0  0  0  0  0  0  0  0  0  0  0
    2.1364    1.8685    1.1385 H    0  0  0  0  0  0  0  0  0  0  0  0
    3.6240    2.1877    0.2578 H    0  0  0  0  0  0  0  0  0  0  0  0
    4.7066    0.2974   -1.1063 H    0  0  0  0  0  0  0  0  0  0  0  0
    1.2890   -0.4126    1.4001 H    0  0  0  0  0  0  0  0  0  0  0  0
    5.0413   -2.1842   -1.1899 H    0  0  0  0  0  0  0  0  0  0  0  0
    3.4407   -3.6531    0.0443 H    0  0  0  0  0  0  0  0  0  0  0  0
  1  2  1  0
  2  3  1  0
  3  4  2  0
  4  6  1  0
  6  8  2  0
  8  7  1  0
  7  5  2  0
  3  5  1  0
  1  9  1  0
  1 10  1  0
  1 11  1  0
  2 12  1  0
  2 13  1  0
  4 14  1  0
  5 15  1  0
  6 16  1  0
  8 17  1  0
M  END
