  3-METHYL-2-ETHYL-1-BUTENE.mol	7357-93-9
  NIST    07011509573D 1   1.00000  -275.16405
Copyright by the U.S. Sec. Commerce on behalf of U.S.A. All rights reserved.
 21 20  0  0  0  0  0  0  0  0999 V2000
    1.9576    1.3556    2.2428 C    0  0  0  0  0  0  0  0  0  0  0  0
    3.3463    1.7087    1.7124 C    0  0  0  0  0  0  0  0  0  0  0  0
    4.4788    1.4241    2.6827 C    0  0  0  0  0  0  0  0  0  0  0  0
    3.5477    2.2340    0.4994 C    0  0  0  0  0  0  0  0  0  0  0  0
    1.4202    2.4749    3.1608 C    0  0  0  0  0  0  0  0  0  0  0  0
    0.9287    1.0231    1.1526 C    0  0  0  0  0  0  0  0  0  0  0  0
    5.8819    1.8586    2.2549 C    0  0  0  0  0  0  0  0  0  0  0  0
    2.0747    0.4554    2.8662 H    0  0  0  0  0  0  0  0  0  0  0  0
    4.2395    1.8892    3.6506 H    0  0  0  0  0  0  0  0  0  0  0  0
    4.4834    0.3418    2.8876 H    0  0  0  0  0  0  0  0  0  0  0  0
    4.5374    2.5048    0.1453 H    0  0  0  0  0  0  0  0  0  0  0  0
    2.7319    2.4178   -0.1927 H    0  0  0  0  0  0  0  0  0  0  0  0
    0.4663    2.1803    3.6145 H    0  0  0  0  0  0  0  0  0  0  0  0
    1.2548    3.3937    2.5861 H    0  0  0  0  0  0  0  0  0  0  0  0
    2.1168    2.7095    3.9731 H    0  0  0  0  0  0  0  0  0  0  0  0
   -0.0064    0.6756    1.6071 H    0  0  0  0  0  0  0  0  0  0  0  0
    1.2949    0.2390    0.4812 H    0  0  0  0  0  0  0  0  0  0  0  0
    0.6859    1.9020    0.5438 H    0  0  0  0  0  0  0  0  0  0  0  0
    5.9321    2.9400    2.0852 H    0  0  0  0  0  0  0  0  0  0  0  0
    6.1928    1.3592    1.3305 H    0  0  0  0  0  0  0  0  0  0  0  0
    6.6127    1.6067    3.0311 H    0  0  0  0  0  0  0  0  0  0  0  0
  1  2  1  0  0  0  0
  1  5  1  0  0  0  0
  1  6  1  0  0  0  0
  1  8  1  0  0  0  0
  2  3  1  0  0  0  0
  2  4  2  0  0  0  0
  3  7  1  0  0  0  0
  3  9  1  0  0  0  0
  3 10  1  0  0  0  0
  4 11  1  0  0  0  0
  4 12  1  0  0  0  0
  5 13  1  0  0  0  0
  5 14  1  0  0  0  0
  5 15  1  0  0  0  0
  6 16  1  0  0  0  0
  6 17  1  0  0  0  0
  6 18  1  0  0  0  0
  7 19  1  0  0  0  0
  7 20  1  0  0  0  0
  7 21  1  0  0  0  0
M  END
