  3-METHYL-TRANS-2-HEXENE.mol	20710-38-7
  NIST    07011510483D 1   1.00000  -275.16962
Copyright by the U.S. Sec. Commerce on behalf of U.S.A. All rights reserved.
 21 20  0  0  0  0  0  0  0  0999 V2000
    0.4914    3.0464    1.4848 C    0  0  0  0  0  0  0  0  0  0  0  0
    1.9237    2.9211    2.0139 C    0  0  0  0  0  0  0  0  0  0  0  0
    2.8562    2.1817    1.0332 C    0  0  0  0  0  0  0  0  0  0  0  0
    4.2908    2.0502    1.5090 C    0  0  0  0  0  0  0  0  0  0  0  0
    5.2708    2.7276    0.8902 C    0  0  0  0  0  0  0  0  0  0  0  0
    4.5018    1.1271    2.6863 C    0  0  0  0  0  0  0  0  0  0  0  0
    6.7414    2.7522    1.2014 C    0  0  0  0  0  0  0  0  0  0  0  0
    0.0466    2.0594    1.3067 H    0  0  0  0  0  0  0  0  0  0  0  0
    0.4656    3.5959    0.5356 H    0  0  0  0  0  0  0  0  0  0  0  0
   -0.1520    3.5784    2.1950 H    0  0  0  0  0  0  0  0  0  0  0  0
    1.9077    2.3989    2.9794 H    0  0  0  0  0  0  0  0  0  0  0  0
    2.3365    3.9196    2.2104 H    0  0  0  0  0  0  0  0  0  0  0  0
    2.8378    2.7069    0.0692 H    0  0  0  0  0  0  0  0  0  0  0  0
    2.4389    1.1789    0.8483 H    0  0  0  0  0  0  0  0  0  0  0  0
    4.9820    3.3538    0.0439 H    0  0  0  0  0  0  0  0  0  0  0  0
    4.0853    0.1324    2.4745 H    0  0  0  0  0  0  0  0  0  0  0  0
    3.9849    1.4950    3.5825 H    0  0  0  0  0  0  0  0  0  0  0  0
    5.5551    0.9982    2.9455 H    0  0  0  0  0  0  0  0  0  0  0  0
    7.3303    2.4321    0.3307 H    0  0  0  0  0  0  0  0  0  0  0  0
    7.0169    2.1106    2.0427 H    0  0  0  0  0  0  0  0  0  0  0  0
    7.0720    3.7724    1.4411 H    0  0  0  0  0  0  0  0  0  0  0  0
  1  2  1  0  0  0  0
  1  8  1  0  0  0  0
  1  9  1  0  0  0  0
  1 10  1  0  0  0  0
  2  3  1  0  0  0  0
  2 11  1  0  0  0  0
  2 12  1  0  0  0  0
  3  4  1  0  0  0  0
  3 13  1  0  0  0  0
  3 14  1  0  0  0  0
  4  5  2  0  0  0  0
  4  6  1  0  0  0  0
  5  7  1  0  0  0  0
  5 15  1  0  0  0  0
  6 16  1  0  0  0  0
  6 17  1  0  0  0  0
  6 18  1  0  0  0  0
  7 19  1  0  0  0  0
  7 20  1  0  0  0  0
  7 21  1  0  0  0  0
M  END
