
 OpenBabel11281917513D

 16 16  0  0  0  0  0  0  0  0999 V2000
    0.6294    2.2656    2.0884 C   0  0  0  0  0  0  0  0  0  0  0  0
    1.8037    1.2877    2.0342 C   0  0  2  0  0  0  0  0  0  0  0  0
    2.5548    1.1992    3.3742 C   0  0  0  0  0  0  0  0  0  0  0  0
    3.9931    0.8109    3.0115 C   0  0  0  0  0  0  0  0  0  0  0  0
    4.1276    1.4461    1.6741 C   0  0  0  0  0  0  0  0  0  0  0  0
    2.9000    1.7163    1.1254 C   0  0  0  0  0  0  0  0  0  0  0  0
    0.9682    3.2797    2.3916 H   0  0  0  0  0  0  0  0  0  0  0  0
    0.1528    2.3362    1.0877 H   0  0  0  0  0  0  0  0  0  0  0  0
   -0.1273    1.9045    2.8166 H   0  0  0  0  0  0  0  0  0  0  0  0
    1.4566    0.2879    1.6927 H   0  0  0  0  0  0  0  0  0  0  0  0
    2.6357    2.2431    3.7614 H   0  0  0  0  0  0  0  0  0  0  0  0
    2.0705    0.5951    4.1701 H   0  0  0  0  0  0  0  0  0  0  0  0
    4.6993    1.1976    3.7772 H   0  0  0  0  0  0  0  0  0  0  0  0
    4.1164   -0.2850    2.8768 H   0  0  0  0  0  0  0  0  0  0  0  0
    5.0595    1.5729    1.1393 H   0  0  0  0  0  0  0  0  0  0  0  0
    2.7672    2.0750    0.1130 H   0  0  0  0  0  0  0  0  0  0  0  0
  1  2  1  0  0  0  0
  1  7  1  0  0  0  0
  1  8  1  0  0  0  0
  1  9  1  0  0  0  0
  2  6  1  0  0  0  0
  2 10  1  6  0  0  0
  3  2  1  0  0  0  0
  3 11  1  0  0  0  0
  3 12  1  0  0  0  0
  4  3  1  0  0  0  0
  4 13  1  0  0  0  0
  4 14  1  0  0  0  0
  5  4  1  0  0  0  0
  5 15  1  0  0  0  0
  6  5  2  0  0  0  0
  6 16  1  0  0  0  0
M  END
