  3-METHYL-1,2-BUTADIENE.mol	598-25-4
  NIST    07011508333D 1   1.00000  -195.29422
Copyright by the U.S. Sec. Commerce on behalf of U.S.A. All rights reserved.
 13 12  0  0  0  0  0  0  0  0999 V2000
    3.0592    2.8405    1.4912 C    0  0  0  0  0  0  0  0  0  0  0  0
    2.0789    2.0129    1.2180 C    0  0  0  0  0  0  0  0  0  0  0  0
    2.3049    0.5187    1.1123 C    0  0  0  0  0  0  0  0  0  0  0  0
    0.6632    2.5024    0.9928 C    0  0  0  0  0  0  0  0  0  0  0  0
    4.0373    3.6652    1.7639 C    0  0  0  0  0  0  0  0  0  0  0  0
    1.6802   -0.0198    1.8380 H    0  0  0  0  0  0  0  0  0  0  0  0
    2.0228    0.1537    0.1152 H    0  0  0  0  0  0  0  0  0  0  0  0
    3.3496    0.2533    1.2932 H    0  0  0  0  0  0  0  0  0  0  0  0
    0.3084    2.2155   -0.0066 H    0  0  0  0  0  0  0  0  0  0  0  0
   -0.0243    2.0468    1.7185 H    0  0  0  0  0  0  0  0  0  0  0  0
    0.5908    3.5891    1.0852 H    0  0  0  0  0  0  0  0  0  0  0  0
    4.6425    4.1179    0.9792 H    0  0  0  0  0  0  0  0  0  0  0  0
    4.2909    3.9368    2.7880 H    0  0  0  0  0  0  0  0  0  0  0  0
  1  2  2  0  0  0  0
  1  5  2  0  0  0  0
  2  3  1  0  0  0  0
  2  4  1  0  0  0  0
  3  6  1  0  0  0  0
  3  7  1  0  0  0  0
  3  8  1  0  0  0  0
  4  9  1  0  0  0  0
  4 10  1  0  0  0  0
  4 11  1  0  0  0  0
  5 12  1  0  0  0  0
  5 13  1  0  0  0  0
M  END
