  3-METHYL-3-ETHYLPENTANE.mol	1067-08-9
  NIST    07011515003D 1   1.00000  -315.70342
Copyright by the U.S. Sec. Commerce on behalf of U.S.A. All rights reserved.
 26 25  0  0  0  0  0  0  0  0999 V2000
    3.9321    2.0504    1.0872 C    0  0  0  0  0  0  0  0  0  0  0  0
    3.3079    3.0056    2.1442 C    0  0  0  0  0  0  0  0  0  0  0  0
    3.9041    4.4288    1.9484 C    0  0  0  0  0  0  0  0  0  0  0  0
    1.7704    3.0686    1.9183 C    0  0  0  0  0  0  0  0  0  0  0  0
    3.6138    2.4940    3.5676 C    0  0  0  0  0  0  0  0  0  0  0  0
    3.4166    0.6045    1.0533 C    0  0  0  0  0  0  0  0  0  0  0  0
    5.4297    4.5713    2.0464 C    0  0  0  0  0  0  0  0  0  0  0  0
    0.9675    4.0258    2.8109 C    0  0  0  0  0  0  0  0  0  0  0  0
    3.7875    2.4979    0.0926 H    0  0  0  0  0  0  0  0  0  0  0  0
    5.0169    2.0167    1.2476 H    0  0  0  0  0  0  0  0  0  0  0  0
    3.5792    4.8050    0.9668 H    0  0  0  0  0  0  0  0  0  0  0  0
    3.4546    5.0988    2.6918 H    0  0  0  0  0  0  0  0  0  0  0  0
    1.3591    2.0602    2.0508 H    0  0  0  0  0  0  0  0  0  0  0  0
    1.5885    3.3340    0.8663 H    0  0  0  0  0  0  0  0  0  0  0  0
    3.0899    1.5546    3.7780 H    0  0  0  0  0  0  0  0  0  0  0  0
    3.3055    3.2188    4.3297 H    0  0  0  0  0  0  0  0  0  0  0  0
    4.6853    2.3097    3.7059 H    0  0  0  0  0  0  0  0  0  0  0  0
    3.9692    0.0274    0.3028 H    0  0  0  0  0  0  0  0  0  0  0  0
    2.3553    0.5450    0.7901 H    0  0  0  0  0  0  0  0  0  0  0  0
    3.5510    0.0974    2.0155 H    0  0  0  0  0  0  0  0  0  0  0  0
    5.9522    4.0158    1.2607 H    0  0  0  0  0  0  0  0  0  0  0  0
    5.8137    4.2245    3.0125 H    0  0  0  0  0  0  0  0  0  0  0  0
    5.7151    5.6247    1.9428 H    0  0  0  0  0  0  0  0  0  0  0  0
    1.1009    3.8036    3.8756 H    0  0  0  0  0  0  0  0  0  0  0  0
   -0.1027    3.9337    2.5918 H    0  0  0  0  0  0  0  0  0  0  0  0
    1.2413    5.0740    2.6515 H    0  0  0  0  0  0  0  0  0  0  0  0
  1  2  1  0  0  0  0
  1  6  1  0  0  0  0
  1  9  1  0  0  0  0
  1 10  1  0  0  0  0
  2  3  1  0  0  0  0
  2  4  1  0  0  0  0
  2  5  1  0  0  0  0
  3  7  1  0  0  0  0
  3 11  1  0  0  0  0
  3 12  1  0  0  0  0
  4  8  1  0  0  0  0
  4 13  1  0  0  0  0
  4 14  1  0  0  0  0
  5 15  1  0  0  0  0
  5 16  1  0  0  0  0
  5 17  1  0  0  0  0
  6 18  1  0  0  0  0
  6 19  1  0  0  0  0
  6 20  1  0  0  0  0
  7 21  1  0  0  0  0
  7 22  1  0  0  0  0
  7 23  1  0  0  0  0
  8 24  1  0  0  0  0
  8 25  1  0  0  0  0
  8 26  1  0  0  0  0
M  END
