  3-METHYL-1,4-PENTADIENE.mol	1115-08-8
  NIST    06301517053D 1   1.00000  -234.61125
Copyright by the U.S. Sec. Commerce on behalf of U.S.A. All rights reserved.
 16 15  0  0  0  0  0  0  0  0999 V2000
    1.7867    1.2852    1.7599 C    0  0  0  0  0  0  0  0  0  0  0  0
    3.0344    1.6986    1.0103 C    0  0  0  0  0  0  0  0  0  0  0  0
    4.2733    1.2621    1.7613 C    0  0  0  0  0  0  0  0  0  0  0  0
    3.0486    3.2280    0.7867 C    0  0  0  0  0  0  0  0  0  0  0  0
    0.8310    0.4870    1.2845 C    0  0  0  0  0  0  0  0  0  0  0  0
    5.2143    0.4459    1.2872 C    0  0  0  0  0  0  0  0  0  0  0  0
    1.6859    1.6976    2.7662 H    0  0  0  0  0  0  0  0  0  0  0  0
    3.0304    1.2035    0.0302 H    0  0  0  0  0  0  0  0  0  0  0  0
    4.3807    1.6728    2.7676 H    0  0  0  0  0  0  0  0  0  0  0  0
    3.0524    3.7649    1.7436 H    0  0  0  0  0  0  0  0  0  0  0  0
    3.9423    3.5294    0.2295 H    0  0  0  0  0  0  0  0  0  0  0  0
    2.1619    3.5457    0.2274 H    0  0  0  0  0  0  0  0  0  0  0  0
    0.8912    0.0524    0.2885 H    0  0  0  0  0  0  0  0  0  0  0  0
   -0.0483    0.2343    1.8712 H    0  0  0  0  0  0  0  0  0  0  0  0
    5.1470    0.0123    0.2912 H    0  0  0  0  0  0  0  0  0  0  0  0
    6.0881    0.1770    1.8748 H    0  0  0  0  0  0  0  0  0  0  0  0
  1  2  1  0  0  0  0
  1  5  2  0  0  0  0
  1  7  1  0  0  0  0
  2  3  1  0  0  0  0
  2  4  1  0  0  0  0
  2  8  1  0  0  0  0
  3  6  2  0  0  0  0
  3  9  1  0  0  0  0
  4 10  1  0  0  0  0
  4 11  1  0  0  0  0
  4 12  1  0  0  0  0
  5 13  1  0  0  0  0
  5 14  1  0  0  0  0
  6 15  1  0  0  0  0
  6 16  1  0  0  0  0
M  END
