
 OpenBabel12021909023D

 16 16  0  0  0  0  0  0  0  0999 V2000
    6.2481    2.4011   -1.8514 C   0  0  0  0  0  0  0  0  0  0  0  0
    6.0513    1.3954   -0.7164 C   0  0  2  0  0  0  0  0  0  0  0  0
    6.9568    1.6516    0.4740 C   0  0  0  0  0  0  0  0  0  0  0  0
    6.6485    0.5031    1.4225 C   0  0  0  0  0  0  0  0  0  0  0  0
    6.5280   -1.0104    0.4031 S   0  0  0  0  0  0  0  0  0  0  0  0
    6.3881   -0.0329   -1.1354 C   0  0  0  0  0  0  0  0  0  0  0  0
    5.5728    2.1535   -2.6977 H   0  0  0  0  0  0  0  0  0  0  0  0
    6.0077    3.4250   -1.4948 H   0  0  0  0  0  0  0  0  0  0  0  0
    7.2986    2.3859   -2.2135 H   0  0  0  0  0  0  0  0  0  0  0  0
    4.9916    1.4413   -0.3733 H   0  0  0  0  0  0  0  0  0  0  0  0
    8.0195    1.5881    0.1454 H   0  0  0  0  0  0  0  0  0  0  0  0
    6.7908    2.6385    0.9572 H   0  0  0  0  0  0  0  0  0  0  0  0
    7.4344    0.4337    2.2036 H   0  0  0  0  0  0  0  0  0  0  0  0
    5.6533    0.6636    1.8912 H   0  0  0  0  0  0  0  0  0  0  0  0
    7.3846   -0.0662   -1.6284 H   0  0  0  0  0  0  0  0  0  0  0  0
    5.6066   -0.4255   -1.8198 H   0  0  0  0  0  0  0  0  0  0  0  0
  1  2  1  0  0  0  0
  1  7  1  0  0  0  0
  1  8  1  0  0  0  0
  1  9  1  0  0  0  0
  2  3  1  0  0  0  0
  2 10  1  1  0  0  0
  3  4  1  0  0  0  0
  3 11  1  0  0  0  0
  3 12  1  0  0  0  0
  4  5  1  0  0  0  0
  4 13  1  0  0  0  0
  4 14  1  0  0  0  0
  5  6  1  0  0  0  0
  6  2  1  0  0  0  0
  6 15  1  0  0  0  0
  6 16  1  0  0  0  0
M  END
