  3-METHYL-CIS-2-HEXENE.mol	10574-36-4
  NIST    07011509553D 1   1.00000  -275.16750
Copyright by the U.S. Sec. Commerce on behalf of U.S.A. All rights reserved.
 21 20  0  0  0  0  0  0  0  0999 V2000
    3.6866    1.3508    1.2769 C    0  0  0  0  0  0  0  0  0  0  0  0
    4.0261    0.8539    2.7009 C    0  0  0  0  0  0  0  0  0  0  0  0
    5.2391    1.5327    3.3446 C    0  0  0  0  0  0  0  0  0  0  0  0
    3.3515    2.8316    1.1763 C    0  0  0  0  0  0  0  0  0  0  0  0
    4.4591    3.7294    0.6746 C    0  0  0  0  0  0  0  0  0  0  0  0
    2.1504    3.3405    1.4922 C    0  0  0  0  0  0  0  0  0  0  0  0
    0.9347    2.5973    1.9724 C    0  0  0  0  0  0  0  0  0  0  0  0
    4.5385    1.1314    0.6184 H    0  0  0  0  0  0  0  0  0  0  0  0
    2.8504    0.7500    0.8973 H    0  0  0  0  0  0  0  0  0  0  0  0
    3.1500    0.9951    3.3468 H    0  0  0  0  0  0  0  0  0  0  0  0
    4.2016   -0.2297    2.6515 H    0  0  0  0  0  0  0  0  0  0  0  0
    6.1380    1.4140    2.7263 H    0  0  0  0  0  0  0  0  0  0  0  0
    5.0678    2.6055    3.4861 H    0  0  0  0  0  0  0  0  0  0  0  0
    5.4540    1.0995    4.3283 H    0  0  0  0  0  0  0  0  0  0  0  0
    4.1562    4.7816    0.6603 H    0  0  0  0  0  0  0  0  0  0  0  0
    5.3619    3.6443    1.2936 H    0  0  0  0  0  0  0  0  0  0  0  0
    4.7576    3.4496   -0.3460 H    0  0  0  0  0  0  0  0  0  0  0  0
    2.0166    4.4189    1.3915 H    0  0  0  0  0  0  0  0  0  0  0  0
    1.0675    1.5117    1.9610 H    0  0  0  0  0  0  0  0  0  0  0  0
    0.6717    2.8872    2.9996 H    0  0  0  0  0  0  0  0  0  0  0  0
    0.0613    2.8352    1.3501 H    0  0  0  0  0  0  0  0  0  0  0  0
  1  2  1  0  0  0  0
  1  4  1  0  0  0  0
  1  8  1  0  0  0  0
  1  9  1  0  0  0  0
  2  3  1  0  0  0  0
  2 10  1  0  0  0  0
  2 11  1  0  0  0  0
  3 12  1  0  0  0  0
  3 13  1  0  0  0  0
  3 14  1  0  0  0  0
  4  5  1  0  0  0  0
  4  6  2  0  0  0  0
  5 15  1  0  0  0  0
  5 16  1  0  0  0  0
  5 17  1  0  0  0  0
  6  7  1  0  0  0  0
  6 18  1  0  0  0  0
  7 19  1  0  0  0  0
  7 20  1  0  0  0  0
  7 21  1  0  0  0  0
M  END
