  3-METHYLTHIOPHENE.mol	616-44-4
  NIST    07011508223D 1   1.00000  -592.32152
Copyright by the U.S. Sec. Commerce on behalf of U.S.A. All rights reserved.
 12 12  0  0  0  0  0  0  0  0999 V2000
    3.4874    0.5533    0.9126 C    0  0  0  0  0  0  0  0  0  0  0  0
    2.8096    1.8967    0.8565 C    0  0  0  0  0  0  0  0  0  0  0  0
    1.3877    2.0734    0.7557 C    0  0  0  0  0  0  0  0  0  0  0  0
    3.4623    3.1002    0.8924 C    0  0  0  0  0  0  0  0  0  0  0  0
    1.0036    3.3831    0.7181 C    0  0  0  0  0  0  0  0  0  0  0  0
    2.3710    4.4489    0.8066 S    0  0  0  0  0  0  0  0  0  0  0  0
    3.1340   -0.0375    1.7669 H    0  0  0  0  0  0  0  0  0  0  0  0
    3.2853   -0.0347    0.0084 H    0  0  0  0  0  0  0  0  0  0  0  0
    4.5726    0.6585    1.0059 H    0  0  0  0  0  0  0  0  0  0  0  0
    0.6853    1.2466    0.7134 H    0  0  0  0  0  0  0  0  0  0  0  0
    4.5282    3.2728    0.9655 H    0  0  0  0  0  0  0  0  0  0  0  0
    0.0028    3.7873    0.6453 H    0  0  0  0  0  0  0  0  0  0  0  0
  1  2  1  0  0  0  0
  1  7  1  0  0  0  0
  1  8  1  0  0  0  0
  1  9  1  0  0  0  0
  2  3  1  0  0  0  0
  3  5  2  0  0  0  0
  3 10  1  0  0  0  0
  4  2  2  0  0  0  0
  4 11  1  0  0  0  0
  5  6  1  0  0  0  0
  5 12  1  0  0  0  0
  6  4  1  0  0  0  0
M  END
