
 OpenBabel10011916113D

 17 17  0  0  0  0  0  0  0  0999 V2000
    6.3441    4.3642   -1.6564 O   0  0  0  0  0  0  0  0  0  0  0  0
    6.7433    3.0822   -1.5059 C   0  0  0  0  0  0  0  0  0  0  0  0
    7.8867    2.7677   -1.8041 O   0  0  0  0  0  0  0  0  0  0  0  0
    5.7986    2.0636   -0.9819 C   0  0  0  0  0  0  0  0  0  0  0  0
    6.2048    0.7252   -0.8214 C   0  0  0  0  0  0  0  0  0  0  0  0
    4.4857    2.4276   -0.6401 C   0  0  0  0  0  0  0  0  0  0  0  0
    5.3099   -0.2443   -0.3240 C   0  0  0  0  0  0  0  0  0  0  0  0
    3.5948    1.4731   -0.1472 C   0  0  0  0  0  0  0  0  0  0  0  0
    5.7260   -1.6032   -0.1623 N   0  0  0  0  0  0  0  0  0  0  0  0
    3.9994    0.1465    0.0112 C   0  0  0  0  0  0  0  0  0  0  0  0
    4.9649   -2.4216    0.2594 O   0  0  0  0  0  0  0  0  0  0  0  0
    6.8381   -1.9325   -0.4473 O   0  0  0  0  0  0  0  0  0  0  0  0
    6.9473    5.0402   -1.9966 H   0  0  0  0  0  0  0  0  0  0  0  0
    7.2155    0.4377   -1.0830 H   0  0  0  0  0  0  0  0  0  0  0  0
    4.1492    3.4504   -0.7544 H   0  0  0  0  0  0  0  0  0  0  0  0
    2.5850    1.7629    0.1135 H   0  0  0  0  0  0  0  0  0  0  0  0
    3.2902   -0.5755    0.3953 H   0  0  0  0  0  0  0  0  0  0  0  0
  1  2  1  0  0  0  0
  1 13  1  0  0  0  0
  2  3  2  0  0  0  0
  2  4  1  0  0  0  0
  4  5  1  0  0  0  0
  4  6  2  0  0  0  0
  5  7  2  0  0  0  0
  5 14  1  0  0  0  0
  6 15  1  0  0  0  0
  7  9  1  0  0  0  0
  7 10  1  0  0  0  0
  8  6  1  0  0  0  0
  8 16  1  0  0  0  0
  9 11  2  0  0  0  0
  9 12  2  0  0  0  0
 10  8  2  0  0  0  0
 10 17  1  0  0  0  0
M  END
