  3-OCTYNE.mol	15232-76-5
  NIST    07011511483D 1   1.00000  -313.23383
Copyright by the U.S. Sec. Commerce on behalf of U.S.A. All rights reserved.
 22 21  0  0  0  0  0  0  0  0999 V2000
    3.3902    3.1327    1.4437 C    0  0  0  0  0  0  0  0  0  0  0  0
    4.7356    3.7077    1.3747 C    0  0  0  0  0  0  0  0  0  0  0  0
    5.8567    2.6596    1.5387 C    0  0  0  0  0  0  0  0  0  0  0  0
    2.2867    2.6391    1.5070 C    0  0  0  0  0  0  0  0  0  0  0  0
    7.2588    3.2742    1.4598 C    0  0  0  0  0  0  0  0  0  0  0  0
    0.9569    2.0264    1.5677 C    0  0  0  0  0  0  0  0  0  0  0  0
    8.3762    2.2381    1.6189 C    0  0  0  0  0  0  0  0  0  0  0  0
    0.9064    0.6262    0.9276 C    0  0  0  0  0  0  0  0  0  0  0  0
    4.8466    4.4790    2.1510 H    0  0  0  0  0  0  0  0  0  0  0  0
    4.8661    4.2279    0.4145 H    0  0  0  0  0  0  0  0  0  0  0  0
    5.7424    1.8913    0.7628 H    0  0  0  0  0  0  0  0  0  0  0  0
    5.7276    2.1473    2.5012 H    0  0  0  0  0  0  0  0  0  0  0  0
    7.3615    4.0464    2.2356 H    0  0  0  0  0  0  0  0  0  0  0  0
    7.3745    3.7927    0.4972 H    0  0  0  0  0  0  0  0  0  0  0  0
    0.6306    1.9597    2.6151 H    0  0  0  0  0  0  0  0  0  0  0  0
    0.2292    2.6812    1.0681 H    0  0  0  0  0  0  0  0  0  0  0  0
    8.3069    1.7262    2.5865 H    0  0  0  0  0  0  0  0  0  0  0  0
    8.3207    1.4726    0.8353 H    0  0  0  0  0  0  0  0  0  0  0  0
    9.3658    2.7053    1.5590 H    0  0  0  0  0  0  0  0  0  0  0  0
    1.5957   -0.0579    1.4330 H    0  0  0  0  0  0  0  0  0  0  0  0
    1.1902    0.6709   -0.1287 H    0  0  0  0  0  0  0  0  0  0  0  0
   -0.1049    0.2101    0.9961 H    0  0  0  0  0  0  0  0  0  0  0  0
  1  2  1  0  0  0  0
  1  4  3  0  0  0  0
  2  3  1  0  0  0  0
  2  9  1  0  0  0  0
  2 10  1  0  0  0  0
  3  5  1  0  0  0  0
  3 11  1  0  0  0  0
  3 12  1  0  0  0  0
  4  6  1  0  0  0  0
  5  7  1  0  0  0  0
  5 13  1  0  0  0  0
  5 14  1  0  0  0  0
  6  8  1  0  0  0  0
  6 15  1  0  0  0  0
  6 16  1  0  0  0  0
  7 17  1  0  0  0  0
  7 18  1  0  0  0  0
  7 19  1  0  0  0  0
  8 20  1  0  0  0  0
  8 21  1  0  0  0  0
  8 22  1  0  0  0  0
M  END
