  4,4-DIMETHYLCYCLOPENTENE.mol	19037-72-0
  NIST    07041400283D 1   1.00000  -273.95607
Copyright by the U.S. Sec. Commerce on behalf of U.S.A. All rights reserved.
 19 19  0  0  0  0  0  0  0  0999 V2000
    7.4324    3.8211    3.0737 C    0  0  0  0  0  0  0  0  0  0  0  0
    6.4306    3.2403    4.0886 C    0  0  0  0  0  0  0  0  0  0  0  0
    6.8701    3.5935    5.5155 C    0  0  0  0  0  0  0  0  0  0  0  0
    4.9963    3.7717    3.7587 C    0  0  0  0  0  0  0  0  0  0  0  0
    6.3127    1.6953    3.8693 C    0  0  0  0  0  0  0  0  0  0  0  0
    4.3738    2.6663    2.9404 C    0  0  0  0  0  0  0  0  0  0  0  0
    5.0879    1.5397    3.0005 C    0  0  0  0  0  0  0  0  0  0  0  0
    8.4396    3.4194    3.2402 H    0  0  0  0  0  0  0  0  0  0  0  0
    7.1357    3.5747    2.0474 H    0  0  0  0  0  0  0  0  0  0  0  0
    7.4888    4.9136    3.1561 H    0  0  0  0  0  0  0  0  0  0  0  0
    6.9215    4.6804    5.6579 H    0  0  0  0  0  0  0  0  0  0  0  0
    6.1702    3.1917    6.2583 H    0  0  0  0  0  0  0  0  0  0  0  0
    7.8640    3.1842    5.7364 H    0  0  0  0  0  0  0  0  0  0  0  0
    4.4125    3.9490    4.6756 H    0  0  0  0  0  0  0  0  0  0  0  0
    5.0291    4.7334    3.2282 H    0  0  0  0  0  0  0  0  0  0  0  0
    6.1795    1.1631    4.8243 H    0  0  0  0  0  0  0  0  0  0  0  0
    7.2202    1.2776    3.4118 H    0  0  0  0  0  0  0  0  0  0  0  0
    3.4380    2.7873    2.4006 H    0  0  0  0  0  0  0  0  0  0  0  0
    4.8226    0.6027    2.5175 H    0  0  0  0  0  0  0  0  0  0  0  0
  1  2  1  0
  2  3  1  0
  6  7  2  0
  7  5  1  0
  5  2  1  0
  2  4  1  0
  6  4  1  0
  1  8  1  0
  1  9  1  0
  1 10  1  0
  3 11  1  0
  3 12  1  0
  3 13  1  0
  4 14  1  0
  4 15  1  0
  5 16  1  0
  5 17  1  0
  6 18  1  0
  7 19  1  0
M  END
