  4,4-DIMETHYL-1-PENTENE.mol	762-62-9
  NIST    06301518423D 1   1.00000  -275.16173
Copyright by the U.S. Sec. Commerce on behalf of U.S.A. All rights reserved.
 21 20  0  0  0  0  0  0  0  0999 V2000
    3.3751    2.6247    2.3832 C    0  0  0  0  0  0  0  0  0  0  0  0
    1.9366    2.0332    2.4864 C    0  0  0  0  0  0  0  0  0  0  0  0
    3.5172    3.8774    1.5609 C    0  0  0  0  0  0  0  0  0  0  0  0
    0.9706    3.0558    3.1153 C    0  0  0  0  0  0  0  0  0  0  0  0
    1.9999    0.7842    3.3861 C    0  0  0  0  0  0  0  0  0  0  0  0
    1.4279    1.6306    1.0904 C    0  0  0  0  0  0  0  0  0  0  0  0
    4.2421    3.9840    0.4457 C    0  0  0  0  0  0  0  0  0  0  0  0
    3.7250    2.8319    3.4067 H    0  0  0  0  0  0  0  0  0  0  0  0
    4.0417    1.8520    1.9766 H    0  0  0  0  0  0  0  0  0  0  0  0
    2.9920    4.7602    1.9275 H    0  0  0  0  0  0  0  0  0  0  0  0
   -0.0236    2.6135    3.2533 H    0  0  0  0  0  0  0  0  0  0  0  0
    0.8491    3.9429    2.4837 H    0  0  0  0  0  0  0  0  0  0  0  0
    1.3265    3.3873    4.0991 H    0  0  0  0  0  0  0  0  0  0  0  0
    2.6823    0.0311    2.9729 H    0  0  0  0  0  0  0  0  0  0  0  0
    1.0106    0.3205    3.4836 H    0  0  0  0  0  0  0  0  0  0  0  0
    2.3509    1.0371    4.3944 H    0  0  0  0  0  0  0  0  0  0  0  0
    2.0828    0.8778    0.6338 H    0  0  0  0  0  0  0  0  0  0  0  0
    1.3913    2.4919    0.4146 H    0  0  0  0  0  0  0  0  0  0  0  0
    0.4196    1.2030    1.1511 H    0  0  0  0  0  0  0  0  0  0  0  0
    4.3188    4.9196   -0.1022 H    0  0  0  0  0  0  0  0  0  0  0  0
    4.7934    3.1377    0.0396 H    0  0  0  0  0  0  0  0  0  0  0  0
  1  2  1  0  0  0  0
  1  3  1  0  0  0  0
  1  8  1  0  0  0  0
  1  9  1  0  0  0  0
  2  4  1  0  0  0  0
  2  5  1  0  0  0  0
  2  6  1  0  0  0  0
  3  7  2  0  0  0  0
  3 10  1  0  0  0  0
  4 11  1  0  0  0  0
  4 12  1  0  0  0  0
  4 13  1  0  0  0  0
  5 14  1  0  0  0  0
  5 15  1  0  0  0  0
  5 16  1  0  0  0  0
  6 17  1  0  0  0  0
  6 18  1  0  0  0  0
  6 19  1  0  0  0  0
  7 20  1  0  0  0  0
  7 21  1  0  0  0  0
M  END
