  4,4-DIMETHYL-TRANS-2-PENTENE.mol	690-08-4
  NIST    06301518503D 1   1.00000  -275.16724
Copyright by the U.S. Sec. Commerce on behalf of U.S.A. All rights reserved.
 21 20  0  0  0  0  0  0  0  0999 V2000
    3.0638    1.5969    1.7330 C    0  0  0  0  0  0  0  0  0  0  0  0
    1.7333    2.0567    2.3025 C    0  0  0  0  0  0  0  0  0  0  0  0
    4.2505    2.2044    1.8143 C    0  0  0  0  0  0  0  0  0  0  0  0
    1.8399    3.3946    3.0525 C    0  0  0  0  0  0  0  0  0  0  0  0
    1.2168    0.9675    3.2714 C    0  0  0  0  0  0  0  0  0  0  0  0
    0.7301    2.2050    1.1348 C    0  0  0  0  0  0  0  0  0  0  0  0
    5.5251    1.6749    1.2180 C    0  0  0  0  0  0  0  0  0  0  0  0
    3.0112    0.6465    1.1943 H    0  0  0  0  0  0  0  0  0  0  0  0
    4.3362    3.1529    2.3439 H    0  0  0  0  0  0  0  0  0  0  0  0
    2.1897    4.1970    2.3928 H    0  0  0  0  0  0  0  0  0  0  0  0
    0.8594    3.6889    3.4450 H    0  0  0  0  0  0  0  0  0  0  0  0
    2.5316    3.3255    3.8999 H    0  0  0  0  0  0  0  0  0  0  0  0
    0.2274    1.2330    3.6645 H    0  0  0  0  0  0  0  0  0  0  0  0
    1.8991    0.8415    4.1197 H    0  0  0  0  0  0  0  0  0  0  0  0
    1.1271   -0.0021    2.7665 H    0  0  0  0  0  0  0  0  0  0  0  0
   -0.2648    2.4786    1.5080 H    0  0  0  0  0  0  0  0  0  0  0  0
    0.6312    1.2667    0.5754 H    0  0  0  0  0  0  0  0  0  0  0  0
    1.0569    2.9807    0.4328 H    0  0  0  0  0  0  0  0  0  0  0  0
    5.3634    0.7215    0.7033 H    0  0  0  0  0  0  0  0  0  0  0  0
    5.9521    2.3825    0.4940 H    0  0  0  0  0  0  0  0  0  0  0  0
    6.2917    1.5173    1.9892 H    0  0  0  0  0  0  0  0  0  0  0  0
  1  2  1  0  0  0  0
  1  3  2  0  0  0  0
  1  8  1  0  0  0  0
  2  4  1  0  0  0  0
  2  5  1  0  0  0  0
  2  6  1  0  0  0  0
  3  7  1  0  0  0  0
  3  9  1  0  0  0  0
  4 10  1  0  0  0  0
  4 11  1  0  0  0  0
  4 12  1  0  0  0  0
  5 13  1  0  0  0  0
  5 14  1  0  0  0  0
  5 15  1  0  0  0  0
  6 16  1  0  0  0  0
  6 17  1  0  0  0  0
  6 18  1  0  0  0  0
  7 19  1  0  0  0  0
  7 20  1  0  0  0  0
  7 21  1  0  0  0  0
M  END
