  4,4-DIMETHYL-1-HEXENE.mol	1647-08-1
  NIST    06301523183D 1   1.00000  -314.47200
Copyright by the U.S. Sec. Commerce on behalf of U.S.A. All rights reserved.
 24 23  0  0  0  0  0  0  0  0999 V2000
    0.8735    3.2038    2.2262 C    0  0  0  0  0  0  0  0  0  0  0  0
    1.7536    2.1441    1.5506 C    0  0  0  0  0  0  0  0  0  0  0  0
    3.2583    2.1138    1.9353 C    0  0  0  0  0  0  0  0  0  0  0  0
    3.9120    3.4851    1.5807 C    0  0  0  0  0  0  0  0  0  0  0  0
    3.4304    1.8169    3.4367 C    0  0  0  0  0  0  0  0  0  0  0  0
    3.9199    0.9826    1.1220 C    0  0  0  0  0  0  0  0  0  0  0  0
    5.4031    3.5693    1.7727 C    0  0  0  0  0  0  0  0  0  0  0  0
    6.0184    4.3591    2.6549 C    0  0  0  0  0  0  0  0  0  0  0  0
   -0.1655    3.0976    1.8938 H    0  0  0  0  0  0  0  0  0  0  0  0
    1.1891    4.2235    1.9799 H    0  0  0  0  0  0  0  0  0  0  0  0
    0.8775    3.1069    3.3175 H    0  0  0  0  0  0  0  0  0  0  0  0
    1.6815    2.2700    0.4603 H    0  0  0  0  0  0  0  0  0  0  0  0
    1.3335    1.1514    1.7666 H    0  0  0  0  0  0  0  0  0  0  0  0
    3.4379    4.2737    2.1772 H    0  0  0  0  0  0  0  0  0  0  0  0
    3.6786    3.7047    0.5267 H    0  0  0  0  0  0  0  0  0  0  0  0
    2.9840    2.5989    4.0615 H    0  0  0  0  0  0  0  0  0  0  0  0
    2.9556    0.8640    3.7020 H    0  0  0  0  0  0  0  0  0  0  0  0
    4.4906    1.7529    3.7034 H    0  0  0  0  0  0  0  0  0  0  0  0
    4.9725    0.8479    1.3938 H    0  0  0  0  0  0  0  0  0  0  0  0
    3.8721    1.1850    0.0442 H    0  0  0  0  0  0  0  0  0  0  0  0
    3.4103    0.0283    1.3029 H    0  0  0  0  0  0  0  0  0  0  0  0
    6.0129    2.9390    1.1246 H    0  0  0  0  0  0  0  0  0  0  0  0
    5.4613    5.0152    3.3215 H    0  0  0  0  0  0  0  0  0  0  0  0
    7.1015    4.3860    2.7436 H    0  0  0  0  0  0  0  0  0  0  0  0
  1  2  1  0  0  0  0
  1  9  1  0  0  0  0
  1 10  1  0  0  0  0
  1 11  1  0  0  0  0
  2  3  1  0  0  0  0
  2 12  1  0  0  0  0
  2 13  1  0  0  0  0
  3  4  1  0  0  0  0
  3  5  1  0  0  0  0
  3  6  1  0  0  0  0
  4  7  1  0  0  0  0
  4 14  1  0  0  0  0
  4 15  1  0  0  0  0
  5 16  1  0  0  0  0
  5 17  1  0  0  0  0
  5 18  1  0  0  0  0
  6 19  1  0  0  0  0
  6 20  1  0  0  0  0
  6 21  1  0  0  0  0
  7  8  2  0  0  0  0
  7 22  1  0  0  0  0
  8 23  1  0  0  0  0
  8 24  1  0  0  0  0
M  END
