  4,4-DIMETHYLHEPTANE.mol	1068-19-5
  NIST    07011506533D 1   1.00000  -355.01676
Copyright by the U.S. Sec. Commerce on behalf of U.S.A. All rights reserved.
 29 28  0  0  0  0  0  0  0  0999 V2000
    4.7262    1.7157    1.6512 C    0  0  0  0  0  0  0  0  0  0  0  0
    4.0839    2.6671    2.7002 C    0  0  0  0  0  0  0  0  0  0  0  0
    3.0177    3.5598    2.0039 C    0  0  0  0  0  0  0  0  0  0  0  0
    5.1350    3.6127    3.3162 C    0  0  0  0  0  0  0  0  0  0  0  0
    3.4313    1.8539    3.8373 C    0  0  0  0  0  0  0  0  0  0  0  0
    5.9569    0.8844    2.0892 C    0  0  0  0  0  0  0  0  0  0  0  0
    1.8402    2.8617    1.3059 C    0  0  0  0  0  0  0  0  0  0  0  0
    7.3140    1.5097    1.7381 C    0  0  0  0  0  0  0  0  0  0  0  0
    0.8519    3.8649    0.6990 C    0  0  0  0  0  0  0  0  0  0  0  0
    3.9452    1.0239    1.3128 H    0  0  0  0  0  0  0  0  0  0  0  0
    5.0026    2.3084    0.7661 H    0  0  0  0  0  0  0  0  0  0  0  0
    2.6105    4.2502    2.7584 H    0  0  0  0  0  0  0  0  0  0  0  0
    3.5320    4.1937    1.2655 H    0  0  0  0  0  0  0  0  0  0  0  0
    5.6404    4.2056    2.5439 H    0  0  0  0  0  0  0  0  0  0  0  0
    4.6602    4.3131    4.0146 H    0  0  0  0  0  0  0  0  0  0  0  0
    5.8998    3.0620    3.8745 H    0  0  0  0  0  0  0  0  0  0  0  0
    2.9205    2.5182    4.5459 H    0  0  0  0  0  0  0  0  0  0  0  0
    2.6932    1.1384    3.4581 H    0  0  0  0  0  0  0  0  0  0  0  0
    4.1773    1.2857    4.4044 H    0  0  0  0  0  0  0  0  0  0  0  0
    5.9035   -0.0992    1.6046 H    0  0  0  0  0  0  0  0  0  0  0  0
    5.9157    0.6798    3.1669 H    0  0  0  0  0  0  0  0  0  0  0  0
    2.2082    2.2000    0.5115 H    0  0  0  0  0  0  0  0  0  0  0  0
    1.3067    2.2194    2.0186 H    0  0  0  0  0  0  0  0  0  0  0  0
    7.4030    1.6635    0.6554 H    0  0  0  0  0  0  0  0  0  0  0  0
    7.4604    2.4815    2.2206 H    0  0  0  0  0  0  0  0  0  0  0  0
    8.1393    0.8577    2.0485 H    0  0  0  0  0  0  0  0  0  0  0  0
    0.0203    3.3547    0.1994 H    0  0  0  0  0  0  0  0  0  0  0  0
    0.4268    4.5198    1.4697 H    0  0  0  0  0  0  0  0  0  0  0  0
    1.3436    4.5060   -0.0432 H    0  0  0  0  0  0  0  0  0  0  0  0
  1  2  1  0  0  0  0
  1  6  1  0  0  0  0
  1 10  1  0  0  0  0
  1 11  1  0  0  0  0
  2  3  1  0  0  0  0
  2  4  1  0  0  0  0
  2  5  1  0  0  0  0
  3  7  1  0  0  0  0
  3 12  1  0  0  0  0
  3 13  1  0  0  0  0
  4 14  1  0  0  0  0
  4 15  1  0  0  0  0
  4 16  1  0  0  0  0
  5 17  1  0  0  0  0
  5 18  1  0  0  0  0
  5 19  1  0  0  0  0
  6  8  1  0  0  0  0
  6 20  1  0  0  0  0
  6 21  1  0  0  0  0
  7  9  1  0  0  0  0
  7 22  1  0  0  0  0
  7 23  1  0  0  0  0
  8 24  1  0  0  0  0
  8 25  1  0  0  0  0
  8 26  1  0  0  0  0
  9 27  1  0  0  0  0
  9 28  1  0  0  0  0
  9 29  1  0  0  0  0
M  END
