  4,5-DIMETHYL-CIS-2-HEXENE.mol	65036-71-7
  NIST    08011209273D 1   1.00000     0.00000
Copyright by the U.S. Sec. Commerce on behalf of U.S.A. All rights reserved.
 24 23  0  0  1  0  0  0  0  0999 V2000
    1.4787    1.0861   -0.7150 C    0  0  0  0  0  0  0  0  0  0  0  0
    2.5547    0.2068   -0.1398 C    0  0  0  0  0  0  0  0  0  0  0  0
    2.8008   -0.0629    1.1482 C    0  0  0  0  0  0  0  0  0  0  0  0
    2.0902    0.4575    2.3770 C    0  0  0  0  0  0  0  0  0  0  0  0
    1.5444   -0.7160    3.2421 C    0  0  0  0  0  0  0  0  0  0  0  0
    0.8832   -0.2354    4.5440 C    0  0  0  0  0  0  0  0  0  0  0  0
    0.5585   -1.5872    2.4479 C    0  0  0  0  0  0  0  0  0  0  0  0
    3.0575    1.3715    3.1594 C    0  0  0  0  0  0  0  0  0  0  0  0
    0.8383    0.5190   -1.4044 H    0  0  0  0  0  0  0  0  0  0  0  0
    1.9167    1.9060   -1.3007 H    0  0  0  0  0  0  0  0  0  0  0  0
    0.8359    1.5290    0.0504 H    0  0  0  0  0  0  0  0  0  0  0  0
    3.2070   -0.2576   -0.8809 H    0  0  0  0  0  0  0  0  0  0  0  0
    3.6401   -0.7273    1.3684 H    0  0  0  0  0  0  0  0  0  0  0  0
    1.2276    1.0652    2.0704 H    0  0  0  0  0  0  0  0  0  0  0  0
    2.4073   -1.3449    3.5153 H    0  0  0  0  0  0  0  0  0  0  0  0
    0.0582    0.4582    4.3330 H    0  0  0  0  0  0  0  0  0  0  0  0
    1.5873    0.2732    5.2099 H    0  0  0  0  0  0  0  0  0  0  0  0
    0.4641   -1.0843    5.0970 H    0  0  0  0  0  0  0  0  0  0  0  0
   -0.3340   -1.0105    2.1701 H    0  0  0  0  0  0  0  0  0  0  0  0
    0.2250   -2.4434    3.0460 H    0  0  0  0  0  0  0  0  0  0  0  0
    1.0070   -1.9684    1.5255 H    0  0  0  0  0  0  0  0  0  0  0  0
    3.9077    0.7983    3.5518 H    0  0  0  0  0  0  0  0  0  0  0  0
    2.5652    1.8635    4.0044 H    0  0  0  0  0  0  0  0  0  0  0  0
    3.4593    2.1522    2.5049 H    0  0  0  0  0  0  0  0  0  0  0  0
  1  2  1  0  0  0  0
  1  9  1  0  0  0  0
  1 10  1  0  0  0  0
  1 11  1  0  0  0  0
  2  3  2  0  0  0  0
  2 12  1  0  0  0  0
  3  4  1  0  0  0  0
  3 13  1  0  0  0  0
  4  8  1  0  0  0  0
  4  5  1  0  0  0  0
  4 14  1  0  0  0  0
  5  7  1  0  0  0  0
  5  6  1  0  0  0  0
  5 15  1  0  0  0  0
  6 16  1  0  0  0  0
  6 17  1  0  0  0  0
  6 18  1  0  0  0  0
  7 19  1  0  0  0  0
  7 20  1  0  0  0  0
  7 21  1  0  0  0  0
  8 22  1  0  0  0  0
  8 23  1  0  0  0  0
  8 24  1  0  0  0  0
M  END
