  4,5-DIMETHYL-TRANS-2-HEXENE.mol	66225-14-7
  NIST    08011209273D 1   1.00000     0.00000
Copyright by the U.S. Sec. Commerce on behalf of U.S.A. All rights reserved.
 24 23  0  0  1  0  0  0  0  0999 V2000
    1.1210    0.9310    0.0157 C    0  0  0  0  0  0  0  0  0  0  0  0
    2.5818    0.6182    0.1839 C    0  0  0  0  0  0  0  0  0  0  0  0
    3.5660    0.6751   -0.7279 C    0  0  0  0  0  0  0  0  0  0  0  0
    4.9900    0.3232   -0.3404 C    0  0  0  0  0  0  0  0  0  0  0  0
    5.5856   -0.9257   -1.0373 C    0  0  0  0  0  0  0  0  0  0  0  0
    7.0663   -1.0864   -0.6641 C    0  0  0  0  0  0  0  0  0  0  0  0
    4.7936   -2.1967   -0.7028 C    0  0  0  0  0  0  0  0  0  0  0  0
    3.3727    1.0992   -2.1652 C    0  0  0  0  0  0  0  0  0  0  0  0
    0.8089    1.7231    0.7104 H    0  0  0  0  0  0  0  0  0  0  0  0
    0.5047    0.0522    0.2512 H    0  0  0  0  0  0  0  0  0  0  0  0
    0.8601    1.2544   -0.9955 H    0  0  0  0  0  0  0  0  0  0  0  0
    2.8585    0.3060    1.1925 H    0  0  0  0  0  0  0  0  0  0  0  0
    5.6427    1.1806   -0.5695 H    0  0  0  0  0  0  0  0  0  0  0  0
    5.0464    0.1725    0.7465 H    0  0  0  0  0  0  0  0  0  0  0  0
    5.5336   -0.7687   -2.1247 H    0  0  0  0  0  0  0  0  0  0  0  0
    7.1835   -1.2419    0.4165 H    0  0  0  0  0  0  0  0  0  0  0  0
    7.6475   -0.1972   -0.9371 H    0  0  0  0  0  0  0  0  0  0  0  0
    7.5126   -1.9490   -1.1731 H    0  0  0  0  0  0  0  0  0  0  0  0
    4.8365   -2.4090    0.3738 H    0  0  0  0  0  0  0  0  0  0  0  0
    5.2032   -3.0669   -1.2296 H    0  0  0  0  0  0  0  0  0  0  0  0
    3.7381   -2.0977   -0.9769 H    0  0  0  0  0  0  0  0  0  0  0  0
    2.3585    1.4454   -2.3768 H    0  0  0  0  0  0  0  0  0  0  0  0
    3.5908    0.2763   -2.8589 H    0  0  0  0  0  0  0  0  0  0  0  0
    4.0646    1.9131   -2.4228 H    0  0  0  0  0  0  0  0  0  0  0  0
  1  2  1  0  0  0  0
  1  9  1  0  0  0  0
  1 10  1  0  0  0  0
  1 11  1  0  0  0  0
  2  3  2  0  0  0  0
  2 12  1  0  0  0  0
  3  4  1  0  0  0  0
  3 13  1  0  0  0  0
  4  8  1  0  0  0  0
  4  5  1  0  0  0  0
  4 14  1  0  0  0  0
  5  7  1  0  0  0  0
  5  6  1  0  0  0  0
  5 15  1  0  0  0  0
  6 16  1  0  0  0  0
  6 17  1  0  0  0  0
  6 18  1  0  0  0  0
  7 19  1  0  0  0  0
  7 20  1  0  0  0  0
  7 21  1  0  0  0  0
  8 22  1  0  0  0  0
  8 23  1  0  0  0  0
  8 24  1  0  0  0  0
M  END
