  4-ETHYL-O-XYLENE.mol	934-80-5
  NIST    07011500173D 1   1.00000  -389.51557
Copyright by the U.S. Sec. Commerce on behalf of U.S.A. All rights reserved.
 24 24  0  0  0  0  0  0  0  0999 V2000
    5.9439    3.7973    1.0530 C    0  0  0  0  0  0  0  0  0  0  0  0
    6.5321    4.9786    1.8458 C    0  0  0  0  0  0  0  0  0  0  0  0
    4.6115    3.3255    1.5966 C    0  0  0  0  0  0  0  0  0  0  0  0
    4.5489    2.3624    2.6118 C    0  0  0  0  0  0  0  0  0  0  0  0
    3.4069    3.8584    1.1292 C    0  0  0  0  0  0  0  0  0  0  0  0
    3.3389    1.9285    3.1616 C    0  0  0  0  0  0  0  0  0  0  0  0
    2.1903    3.4376    1.6661 C    0  0  0  0  0  0  0  0  0  0  0  0
    3.3331    0.8823    4.2518 C    0  0  0  0  0  0  0  0  0  0  0  0
    2.1307    2.4766    2.6802 C    0  0  0  0  0  0  0  0  0  0  0  0
    0.7983    2.0354    3.2388 C    0  0  0  0  0  0  0  0  0  0  0  0
    6.6605    2.9659    1.0638 H    0  0  0  0  0  0  0  0  0  0  0  0
    5.8271    4.0928    0.0024 H    0  0  0  0  0  0  0  0  0  0  0  0
    7.4952    5.2927    1.4265 H    0  0  0  0  0  0  0  0  0  0  0  0
    6.6904    4.7064    2.8955 H    0  0  0  0  0  0  0  0  0  0  0  0
    5.8547    5.8399    1.8258 H    0  0  0  0  0  0  0  0  0  0  0  0
    5.4765    1.9303    2.9852 H    0  0  0  0  0  0  0  0  0  0  0  0
    3.4173    4.6042    0.3370 H    0  0  0  0  0  0  0  0  0  0  0  0
    1.2632    3.8615    1.2856 H    0  0  0  0  0  0  0  0  0  0  0  0
    2.7769   -0.0157    3.9517 H    0  0  0  0  0  0  0  0  0  0  0  0
    2.8573    1.2532    5.1692 H    0  0  0  0  0  0  0  0  0  0  0  0
    4.3511    0.5724    4.5073 H    0  0  0  0  0  0  0  0  0  0  0  0
    0.7230    2.2293    4.3171 H    0  0  0  0  0  0  0  0  0  0  0  0
    0.6349    0.9581    3.1024 H    0  0  0  0  0  0  0  0  0  0  0  0
   -0.0275    2.5608    2.7491 H    0  0  0  0  0  0  0  0  0  0  0  0
  1  2  1  0  0  0  0
  1  3  1  0  0  0  0
  1 11  1  0  0  0  0
  1 12  1  0  0  0  0
  2 13  1  0  0  0  0
  2 14  1  0  0  0  0
  2 15  1  0  0  0  0
  3  4  2  0  0  0  0
  4  6  1  0  0  0  0
  4 16  1  0  0  0  0
  5  3  1  0  0  0  0
  5 17  1  0  0  0  0
  6  8  1  0  0  0  0
  6  9  2  0  0  0  0
  7  5  2  0  0  0  0
  7 18  1  0  0  0  0
  8 19  1  0  0  0  0
  8 20  1  0  0  0  0
  8 21  1  0  0  0  0
  9  7  1  0  0  0  0
  9 10  1  0  0  0  0
 10 22  1  0  0  0  0
 10 23  1  0  0  0  0
 10 24  1  0  0  0  0
M  END
