  4-ETHYL-TRANS-2-HEXENE.mol	19781-63-6
  NIST    07091401163D 1   1.00000  -314.48146
Copyright by the U.S. Sec. Commerce on behalf of U.S.A. All rights reserved.
 24 23  0  0  0  0  0  0  0  0999 V2000
    0.8649    1.5719   -0.6602 C    0  0  0  0  0  0  0  0  0  0  0  0
    1.5996    2.2946    0.1905 C    0  0  0  0  0  0  0  0  0  0  0  0
    1.7853    3.7918    0.1558 C    0  0  0  0  0  0  0  0  0  0  0  0
    3.2699    4.1670   -0.0670 C    0  0  0  0  0  0  0  0  0  0  0  0
    3.8377    3.7173   -1.4165 C    0  0  0  0  0  0  0  0  0  0  0  0
    1.2525    4.4523    1.4495 C    0  0  0  0  0  0  0  0  0  0  0  0
    0.6937    0.0798   -0.6092 C    0  0  0  0  0  0  0  0  0  0  0  0
   -0.2563    4.2946    1.6606 C    0  0  0  0  0  0  0  0  0  0  0  0
    0.3380    2.0875   -1.4656 H    0  0  0  0  0  0  0  0  0  0  0  0
    2.1278    1.7772    0.9974 H    0  0  0  0  0  0  0  0  0  0  0  0
    1.2058    4.1914   -0.6912 H    0  0  0  0  0  0  0  0  0  0  0  0
    3.8711    3.7376    0.7478 H    0  0  0  0  0  0  0  0  0  0  0  0
    3.3697    5.2575    0.0240 H    0  0  0  0  0  0  0  0  0  0  0  0
    4.8873    4.0152   -1.5211 H    0  0  0  0  0  0  0  0  0  0  0  0
    3.2801    4.1664   -2.2480 H    0  0  0  0  0  0  0  0  0  0  0  0
    3.7810    2.6298   -1.5318 H    0  0  0  0  0  0  0  0  0  0  0  0
    1.7912    4.0316    2.3114 H    0  0  0  0  0  0  0  0  0  0  0  0
    1.5071    5.5210    1.4249 H    0  0  0  0  0  0  0  0  0  0  0  0
    1.2512   -0.3608    0.2245 H    0  0  0  0  0  0  0  0  0  0  0  0
   -0.3631   -0.1976   -0.4943 H    0  0  0  0  0  0  0  0  0  0  0  0
    1.0413   -0.3943   -1.5373 H    0  0  0  0  0  0  0  0  0  0  0  0
   -0.5770    4.7787    2.5901 H    0  0  0  0  0  0  0  0  0  0  0  0
   -0.8193    4.7505    0.8365 H    0  0  0  0  0  0  0  0  0  0  0  0
   -0.5436    3.2390    1.7107 H    0  0  0  0  0  0  0  0  0  0  0  0
  4  5  1  0
  2  3  1  0
  3  6  1  0
  1  2  2  0
  1  7  1  0
  3  4  1  0
  6  8  1  0
  1  9  1  0
  2 10  1  0
  3 11  1  0
  4 12  1  0
  4 13  1  0
  5 14  1  0
  5 15  1  0
  5 16  1  0
  6 17  1  0
  6 18  1  0
  7 19  1  0
  7 20  1  0
  7 21  1  0
  8 22  1  0
  8 23  1  0
  8 24  1  0
M  END
