  4-ETHYL-1-HEXENE.mol	16746-85-3
  NIST    07011514383D 1   1.00000  -314.46946
Copyright by the U.S. Sec. Commerce on behalf of U.S.A. All rights reserved.
 24 23  0  0  0  0  0  0  0  0999 V2000
    1.7551    0.5491    0.7862 C    0  0  0  0  0  0  0  0  0  0  0  0
    1.1464    1.9481    0.9353 C    0  0  0  0  0  0  0  0  0  0  0  0
    1.8069    2.8234    2.0236 C    0  0  0  0  0  0  0  0  0  0  0  0
    3.2393    3.2676    1.5938 C    0  0  0  0  0  0  0  0  0  0  0  0
    0.8921    4.0196    2.3606 C    0  0  0  0  0  0  0  0  0  0  0  0
    4.2609    3.2569    2.7009 C    0  0  0  0  0  0  0  0  0  0  0  0
    5.3847    2.5382    2.6935 C    0  0  0  0  0  0  0  0  0  0  0  0
    1.3734    4.9295    3.4966 C    0  0  0  0  0  0  0  0  0  0  0  0
    2.8180    0.5857    0.5217 H    0  0  0  0  0  0  0  0  0  0  0  0
    1.2421   -0.0203    0.0026 H    0  0  0  0  0  0  0  0  0  0  0  0
    1.6685   -0.0173    1.7214 H    0  0  0  0  0  0  0  0  0  0  0  0
    1.1922    2.4783   -0.0276 H    0  0  0  0  0  0  0  0  0  0  0  0
    0.0784    1.8406    1.1700 H    0  0  0  0  0  0  0  0  0  0  0  0
    1.9000    2.2050    2.9298 H    0  0  0  0  0  0  0  0  0  0  0  0
    3.6040    2.6210    0.7869 H    0  0  0  0  0  0  0  0  0  0  0  0
    3.1739    4.2788    1.1625 H    0  0  0  0  0  0  0  0  0  0  0  0
   -0.1017    3.6298    2.6210 H    0  0  0  0  0  0  0  0  0  0  0  0
    0.7516    4.6214    1.4500 H    0  0  0  0  0  0  0  0  0  0  0  0
    4.0452    3.8802    3.5688 H    0  0  0  0  0  0  0  0  0  0  0  0
    6.0874    2.5637    3.5223 H    0  0  0  0  0  0  0  0  0  0  0  0
    5.6476    1.8958    1.8548 H    0  0  0  0  0  0  0  0  0  0  0  0
    1.5352    4.3608    4.4207 H    0  0  0  0  0  0  0  0  0  0  0  0
    0.6305    5.7062    3.7117 H    0  0  0  0  0  0  0  0  0  0  0  0
    2.3118    5.4377    3.2482 H    0  0  0  0  0  0  0  0  0  0  0  0
  1  2  1  0  0  0  0
  1  9  1  0  0  0  0
  1 10  1  0  0  0  0
  1 11  1  0  0  0  0
  2  3  1  0  0  0  0
  2 12  1  0  0  0  0
  2 13  1  0  0  0  0
  3  4  1  0  0  0  0
  3  5  1  0  0  0  0
  3 14  1  0  0  0  0
  4  6  1  0  0  0  0
  4 15  1  0  0  0  0
  4 16  1  0  0  0  0
  5  8  1  0  0  0  0
  5 17  1  0  0  0  0
  5 18  1  0  0  0  0
  6  7  2  0  0  0  0
  6 19  1  0  0  0  0
  7 20  1  0  0  0  0
  7 21  1  0  0  0  0
  8 22  1  0  0  0  0
  8 23  1  0  0  0  0
  8 24  1  0  0  0  0
M  END
