  4-ETHYL-2-METHYLHEXANE.mol	3074-75-7
  NIST    07011523393D 1   1.00000  -355.02058
Copyright by the U.S. Sec. Commerce on behalf of U.S.A. All rights reserved.
 29 28  0  0  0  0  0  0  0  0999 V2000
    2.3729    3.6092    2.5527 C    0  0  0  0  0  0  0  0  0  0  0  0
    2.2710    3.3248    4.0682 C    0  0  0  0  0  0  0  0  0  0  0  0
    1.0309    4.0460    4.6421 C    0  0  0  0  0  0  0  0  0  0  0  0
    2.3148    1.8179    4.4151 C    0  0  0  0  0  0  0  0  0  0  0  0
    3.5978    3.0457    1.8030 C    0  0  0  0  0  0  0  0  0  0  0  0
    0.8904    3.9844    6.1676 C    0  0  0  0  0  0  0  0  0  0  0  0
    1.1766    0.9628    3.8414 C    0  0  0  0  0  0  0  0  0  0  0  0
    4.9268    3.5754    2.3629 C    0  0  0  0  0  0  0  0  0  0  0  0
    3.4855    3.3585    0.3024 C    0  0  0  0  0  0  0  0  0  0  0  0
    2.3603    4.7008    2.4102 H    0  0  0  0  0  0  0  0  0  0  0  0
    1.4631    3.2386    2.0586 H    0  0  0  0  0  0  0  0  0  0  0  0
    3.1483    3.7791    4.5538 H    0  0  0  0  0  0  0  0  0  0  0  0
    0.1212    3.6443    4.1744 H    0  0  0  0  0  0  0  0  0  0  0  0
    1.0799    5.1002    4.3356 H    0  0  0  0  0  0  0  0  0  0  0  0
    2.3238    1.7097    5.5071 H    0  0  0  0  0  0  0  0  0  0  0  0
    3.2736    1.4051    4.0754 H    0  0  0  0  0  0  0  0  0  0  0  0
    3.5989    1.9512    1.9093 H    0  0  0  0  0  0  0  0  0  0  0  0
    0.7196    2.9633    6.5264 H    0  0  0  0  0  0  0  0  0  0  0  0
    0.0451    4.5948    6.5061 H    0  0  0  0  0  0  0  0  0  0  0  0
    1.7925    4.3635    6.6644 H    0  0  0  0  0  0  0  0  0  0  0  0
    1.1529    0.9939    2.7461 H    0  0  0  0  0  0  0  0  0  0  0  0
    0.1948    1.2908    4.2021 H    0  0  0  0  0  0  0  0  0  0  0  0
    1.2987   -0.0858    4.1363 H    0  0  0  0  0  0  0  0  0  0  0  0
    5.0767    3.2920    3.4105 H    0  0  0  0  0  0  0  0  0  0  0  0
    4.9649    4.6715    2.3054 H    0  0  0  0  0  0  0  0  0  0  0  0
    5.7766    3.1842    1.7907 H    0  0  0  0  0  0  0  0  0  0  0  0
    3.4874    4.4423    0.1264 H    0  0  0  0  0  0  0  0  0  0  0  0
    4.3255    2.9300   -0.2573 H    0  0  0  0  0  0  0  0  0  0  0  0
    2.5583    2.9551   -0.1222 H    0  0  0  0  0  0  0  0  0  0  0  0
  1  2  1  0  0  0  0
  1  5  1  0  0  0  0
  1 10  1  0  0  0  0
  1 11  1  0  0  0  0
  2  3  1  0  0  0  0
  2  4  1  0  0  0  0
  2 12  1  0  0  0  0
  3  6  1  0  0  0  0
  3 13  1  0  0  0  0
  3 14  1  0  0  0  0
  4  7  1  0  0  0  0
  4 15  1  0  0  0  0
  4 16  1  0  0  0  0
  5  8  1  0  0  0  0
  5  9  1  0  0  0  0
  5 17  1  0  0  0  0
  6 18  1  0  0  0  0
  6 19  1  0  0  0  0
  6 20  1  0  0  0  0
  7 21  1  0  0  0  0
  7 22  1  0  0  0  0
  7 23  1  0  0  0  0
  8 24  1  0  0  0  0
  8 25  1  0  0  0  0
  8 26  1  0  0  0  0
  9 27  1  0  0  0  0
  9 28  1  0  0  0  0
  9 29  1  0  0  0  0
M  END
