  4-METHYL-3-ETHYL-CIS-2-PENTENE.mol	42067-48-1
  NIST    08031215103D 1   1.00000  -314.47837
Copyright by the U.S. Sec. Commerce on behalf of U.S.A. All rights reserved.
 24 23  0  0  0  0  0  0  0  0999 V2000
    0.8561   29.7848   -0.4410 C    0  0  0  0  0  0  0  0  0  0  0  0
    1.0914   30.8163    0.6783 C    0  0  0  0  0  0  0  0  0  0  0  0
    0.9530   32.2662    0.2225 C    0  0  0  0  0  0  0  0  0  0  0  0
    1.9975   32.8503   -0.3881 C    0  0  0  0  0  0  0  0  0  0  0  0
   -0.3634   32.9781    0.5112 C    0  0  0  0  0  0  0  0  0  0  0  0
    2.1241   34.2386   -0.9534 C    0  0  0  0  0  0  0  0  0  0  0  0
   -1.5953   32.2146   -0.0117 C    0  0  0  0  0  0  0  0  0  0  0  0
   -0.5133   33.2809    2.0173 C    0  0  0  0  0  0  0  0  0  0  0  0
    0.9797   28.7629   -0.0620 H    0  0  0  0  0  0  0  0  0  0  0  0
   -0.1505   29.8667   -0.8639 H    0  0  0  0  0  0  0  0  0  0  0  0
    1.5710   29.9324   -1.2579 H    0  0  0  0  0  0  0  0  0  0  0  0
    2.0993   30.6621    1.0840 H    0  0  0  0  0  0  0  0  0  0  0  0
    0.4004   30.6091    1.5047 H    0  0  0  0  0  0  0  0  0  0  0  0
    2.9011   32.2463   -0.5019 H    0  0  0  0  0  0  0  0  0  0  0  0
   -0.3488   33.9443   -0.0049 H    0  0  0  0  0  0  0  0  0  0  0  0
    1.2099   34.8314   -0.8663 H    0  0  0  0  0  0  0  0  0  0  0  0
    2.9277   34.7929   -0.4486 H    0  0  0  0  0  0  0  0  0  0  0  0
    2.3960   34.2006   -2.0173 H    0  0  0  0  0  0  0  0  0  0  0  0
   -2.5076   32.7945    0.1738 H    0  0  0  0  0  0  0  0  0  0  0  0
   -1.5248   32.0330   -1.0898 H    0  0  0  0  0  0  0  0  0  0  0  0
   -1.7174   31.2460    0.4872 H    0  0  0  0  0  0  0  0  0  0  0  0
   -1.4380   33.8394    2.2076 H    0  0  0  0  0  0  0  0  0  0  0  0
    0.3282   33.8781    2.3849 H    0  0  0  0  0  0  0  0  0  0  0  0
   -0.5566   32.3610    2.6125 H    0  0  0  0  0  0  0  0  0  0  0  0
  1  2  1  0
  2  3  1  0
  3  4  2  0
  3  5  1  0
  4  6  1  0
  5  7  1  0
  5  8  1  0
  1  9  1  0
  1 10  1  0
  1 11  1  0
  2 12  1  0
  2 13  1  0
  4 14  1  0
  5 15  1  0
  6 16  1  0
  6 17  1  0
  6 18  1  0
  7 19  1  0
  7 20  1  0
  7 21  1  0
  8 22  1  0
  8 23  1  0
  8 24  1  0
M  END
