  4-METHYL-1-HEXYNE.mol	52713-81-2
  NIST    06271322203D 1   1.00000  -273.90769
Copyright by the U.S. Sec. Commerce on behalf of U.S.A. All rights reserved.
 19 18  0  0  0  0  0  0  0  0999 V2000
   -0.1068   19.8204    0.1130 C    0  0  0  0  0  0  0  0  0  0  0  0
    0.9050   19.1668    0.0210 C    0  0  0  0  0  0  0  0  0  0  0  0
    2.1237   18.3651   -0.1010 C    0  0  0  0  0  0  0  0  0  0  0  0
    2.3761   17.8211   -1.5322 C    0  0  0  0  0  0  0  0  0  0  0  0
    2.5338   18.9699   -2.5372 C    0  0  0  0  0  0  0  0  0  0  0  0
    3.6037   16.8899   -1.5688 C    0  0  0  0  0  0  0  0  0  0  0  0
    3.4626   15.5834   -0.7785 C    0  0  0  0  0  0  0  0  0  0  0  0
   -0.9984   20.3987    0.1997 H    0  0  0  0  0  0  0  0  0  0  0  0
    2.9905   18.9696    0.2062 H    0  0  0  0  0  0  0  0  0  0  0  0
    2.0666   17.5306    0.6093 H    0  0  0  0  0  0  0  0  0  0  0  0
    1.4920   17.2327   -1.8184 H    0  0  0  0  0  0  0  0  0  0  0  0
    2.6494   18.5845   -3.5568 H    0  0  0  0  0  0  0  0  0  0  0  0
    1.6644   19.6346   -2.5197 H    0  0  0  0  0  0  0  0  0  0  0  0
    3.4224   19.5724   -2.3059 H    0  0  0  0  0  0  0  0  0  0  0  0
    3.8094   16.6443   -2.6194 H    0  0  0  0  0  0  0  0  0  0  0  0
    4.4843   17.4449   -1.2120 H    0  0  0  0  0  0  0  0  0  0  0  0
    4.3430   14.9465   -0.9210 H    0  0  0  0  0  0  0  0  0  0  0  0
    3.3597   15.7564    0.2987 H    0  0  0  0  0  0  0  0  0  0  0  0
    2.5847   15.0143   -1.1086 H    0  0  0  0  0  0  0  0  0  0  0  0
  1  2  3  0
  2  3  1  0
  3  4  1  0
  4  5  1  0
  4  6  1  0
  6  7  1  0
  1  8  1  0
  3  9  1  0
  3 10  1  0
  4 11  1  0
  5 12  1  0
  5 13  1  0
  5 14  1  0
  6 15  1  0
  6 16  1  0
  7 17  1  0
  7 18  1  0
  7 19  1  0
M  END
