  4-METHYLQUINOLINE.mol	491-35-0
  NIST    08031215123D 1   1.00000  -441.24938
Copyright by the U.S. Sec. Commerce on behalf of U.S.A. All rights reserved.
 20 21  0  0  0  0  0  0  0  0999 V2000
   -3.8990   -2.1402    1.7075 C    0  0  0  0  0  0  0  0  0  0  0  0
   -5.3482   -1.8560    2.0100 C    0  0  0  0  0  0  0  0  0  0  0  0
   -3.4680   -3.4331    1.2694 C    0  0  0  0  0  0  0  0  0  0  0  0
   -2.9354   -1.1636    1.8423 C    0  0  0  0  0  0  0  0  0  0  0  0
   -2.0730   -3.6229    1.0029 C    0  0  0  0  0  0  0  0  0  0  0  0
   -4.3502   -4.5315    1.0865 C    0  0  0  0  0  0  0  0  0  0  0  0
   -1.5804   -1.4562    1.5524 C    0  0  0  0  0  0  0  0  0  0  0  0
   -1.1444   -2.6299    1.1481 N    0  0  0  0  0  0  0  0  0  0  0  0
   -1.6169   -4.8946    0.5666 C    0  0  0  0  0  0  0  0  0  0  0  0
   -3.8771   -5.7542    0.6617 C    0  0  0  0  0  0  0  0  0  0  0  0
   -2.4986   -5.9384    0.3992 C    0  0  0  0  0  0  0  0  0  0  0  0
   -5.4837   -0.8182    2.3273 H    0  0  0  0  0  0  0  0  0  0  0  0
   -5.9822   -2.0262    1.1312 H    0  0  0  0  0  0  0  0  0  0  0  0
   -5.7259   -2.5056    2.8092 H    0  0  0  0  0  0  0  0  0  0  0  0
   -3.2061   -0.1636    2.1714 H    0  0  0  0  0  0  0  0  0  0  0  0
   -5.4101   -4.4043    1.2845 H    0  0  0  0  0  0  0  0  0  0  0  0
   -0.8306   -0.6726    1.6644 H    0  0  0  0  0  0  0  0  0  0  0  0
   -0.5541   -5.0030    0.3737 H    0  0  0  0  0  0  0  0  0  0  0  0
   -4.5657   -6.5840    0.5267 H    0  0  0  0  0  0  0  0  0  0  0  0
   -2.1402   -6.9081    0.0647 H    0  0  0  0  0  0  0  0  0  0  0  0
  1  2  1  0
  7  4  1  0
  4  1  2  0
  1  3  1  0
  3  6  2  0
  6 10  1  0
 10 11  2  0
 11  9  1  0
  9  5  2  0
  3  5  1  0
  5  8  1  0
  7  8  2  0
  2 12  1  0
  2 13  1  0
  2 14  1  0
  4 15  1  0
  6 16  1  0
  7 17  1  0
  9 18  1  0
 10 19  1  0
 11 20  1  0
M  END
