  4-METHYL-CIS-3-HEPTENE.mol	14255-24-4
  NIST    07091514523D 1   1.00000  -314.48289
Copyright by the U.S. Sec. Commerce on behalf of U.S.A. All rights reserved.
 24 23  0  0  0  0  0  0  0  0999 V2000
    0.6706    0.0071    1.1892 C    0  0  0  0  0  0  0  0  0  0  0  0
    1.7669   -0.1628    0.1227 C    0  0  0  0  0  0  0  0  0  0  0  0
    2.7407   -1.2590    0.4672 C    0  0  0  0  0  0  0  0  0  0  0  0
    4.0666   -1.1721    0.6592 C    0  0  0  0  0  0  0  0  0  0  0  0
    4.8650    0.1109    0.5312 C    0  0  0  0  0  0  0  0  0  0  0  0
    5.5801    0.2615   -0.8279 C    0  0  0  0  0  0  0  0  0  0  0  0
    6.4355    1.5296   -0.9103 C    0  0  0  0  0  0  0  0  0  0  0  0
    4.8742   -2.4009    1.0114 C    0  0  0  0  0  0  0  0  0  0  0  0
   -0.0564    0.7715    0.8911 H    0  0  0  0  0  0  0  0  0  0  0  0
    1.1028    0.3037    2.1515 H    0  0  0  0  0  0  0  0  0  0  0  0
    0.1247   -0.9310    1.3466 H    0  0  0  0  0  0  0  0  0  0  0  0
    2.2818    0.7923   -0.0288 H    0  0  0  0  0  0  0  0  0  0  0  0
    1.2858   -0.4026   -0.8378 H    0  0  0  0  0  0  0  0  0  0  0  0
    2.2813   -2.2435    0.5830 H    0  0  0  0  0  0  0  0  0  0  0  0
    5.6225    0.1404    1.3288 H    0  0  0  0  0  0  0  0  0  0  0  0
    4.2248    0.9867    0.6887 H    0  0  0  0  0  0  0  0  0  0  0  0
    4.8266    0.2674   -1.6262 H    0  0  0  0  0  0  0  0  0  0  0  0
    6.2119   -0.6177   -1.0117 H    0  0  0  0  0  0  0  0  0  0  0  0
    5.8263    2.4297   -0.7606 H    0  0  0  0  0  0  0  0  0  0  0  0
    6.9257    1.6182   -1.8866 H    0  0  0  0  0  0  0  0  0  0  0  0
    7.2189    1.5302   -0.1424 H    0  0  0  0  0  0  0  0  0  0  0  0
    4.2520   -3.3010    1.0449 H    0  0  0  0  0  0  0  0  0  0  0  0
    5.3589   -2.2860    1.9914 H    0  0  0  0  0  0  0  0  0  0  0  0
    5.6804   -2.5768    0.2861 H    0  0  0  0  0  0  0  0  0  0  0  0
  1  2  1  0  0  0  0
  1  9  1  0  0  0  0
  1 10  1  0  0  0  0
  1 11  1  0  0  0  0
  2  3  1  0  0  0  0
  2 12  1  0  0  0  0
  2 13  1  0  0  0  0
  3  4  2  0  0  0  0
  3 14  1  0  0  0  0
  4  8  1  0  0  0  0
  4  5  1  0  0  0  0
  5  6  1  0  0  0  0
  5 15  1  0  0  0  0
  5 16  1  0  0  0  0
  6  7  1  0  0  0  0
  6 17  1  0  0  0  0
  6 18  1  0  0  0  0
  7 19  1  0  0  0  0
  7 20  1  0  0  0  0
  7 21  1  0  0  0  0
  8 22  1  0  0  0  0
  8 23  1  0  0  0  0
  8 24  1  0  0  0  0
M  END
