  4-METHYL-1,2-PENTADIENE.mol	13643-05-5
  NIST    07091514113D 1   1.00000  -234.60419
Copyright by the U.S. Sec. Commerce on behalf of U.S.A. All rights reserved.
 16 15  0  0  0  0  0  0  0  0999 V2000
    0.9517    0.5505   -0.2773 C    0  0  0  0  0  0  0  0  0  0  0  0
    2.1119   -0.0239   -0.0889 C    0  0  0  0  0  0  0  0  0  0  0  0
    3.2731   -0.5932    0.1097 C    0  0  0  0  0  0  0  0  0  0  0  0
    4.1273   -0.4266    1.3553 C    0  0  0  0  0  0  0  0  0  0  0  0
    4.3285   -1.7816    2.0568 C    0  0  0  0  0  0  0  0  0  0  0  0
    5.4782    0.2194    1.0001 C    0  0  0  0  0  0  0  0  0  0  0  0
    0.8672    1.5287   -0.7481 H    0  0  0  0  0  0  0  0  0  0  0  0
    0.0210    0.0739    0.0266 H    0  0  0  0  0  0  0  0  0  0  0  0
    3.6806   -1.2434   -0.6687 H    0  0  0  0  0  0  0  0  0  0  0  0
    3.5935    0.2426    2.0417 H    0  0  0  0  0  0  0  0  0  0  0  0
    4.8407   -2.4930    1.3962 H    0  0  0  0  0  0  0  0  0  0  0  0
    3.3693   -2.2239    2.3464 H    0  0  0  0  0  0  0  0  0  0  0  0
    4.9398   -1.6657    2.9598 H    0  0  0  0  0  0  0  0  0  0  0  0
    6.0379   -0.4055    0.2924 H    0  0  0  0  0  0  0  0  0  0  0  0
    6.0978    0.3445    1.8964 H    0  0  0  0  0  0  0  0  0  0  0  0
    5.3376    1.2033    0.5400 H    0  0  0  0  0  0  0  0  0  0  0  0
  1  2  2  0  0  0  0
  1  7  1  0  0  0  0
  1  8  1  0  0  0  0
  2  3  2  0  0  0  0
  3  4  1  0  0  0  0
  3  9  1  0  0  0  0
  4  6  1  0  0  0  0
  4  5  1  0  0  0  0
  4 10  1  0  0  0  0
  5 11  1  0  0  0  0
  5 12  1  0  0  0  0
  5 13  1  0  0  0  0
  6 14  1  0  0  0  0
  6 15  1  0  0  0  0
  6 16  1  0  0  0  0
M  END
