  4-METHYL-TRANS-2-PENTENE.mol	674-76-0
  NIST    07011509443D 1   1.00000  -235.85347
Copyright by the U.S. Sec. Commerce on behalf of U.S.A. All rights reserved.
 18 17  0  0  0  0  0  0  0  0999 V2000
    2.1034    1.7972    3.1805 C    0  0  0  0  0  0  0  0  0  0  0  0
    2.3793    1.2981    1.7793 C    0  0  0  0  0  0  0  0  0  0  0  0
    0.9197    1.8929    3.7923 C    0  0  0  0  0  0  0  0  0  0  0  0
    3.1117    2.3841    0.9647 C    0  0  0  0  0  0  0  0  0  0  0  0
    1.1363    0.7986    1.0335 C    0  0  0  0  0  0  0  0  0  0  0  0
    0.7154    2.4117    5.1883 C    0  0  0  0  0  0  0  0  0  0  0  0
    2.9922    2.1218    3.7280 H    0  0  0  0  0  0  0  0  0  0  0  0
    3.0750    0.4477    1.8736 H    0  0  0  0  0  0  0  0  0  0  0  0
    0.0170    1.5781    3.2689 H    0  0  0  0  0  0  0  0  0  0  0  0
    2.4636    3.2553    0.8112 H    0  0  0  0  0  0  0  0  0  0  0  0
    3.4090    2.0029   -0.0196 H    0  0  0  0  0  0  0  0  0  0  0  0
    4.0165    2.7277    1.4798 H    0  0  0  0  0  0  0  0  0  0  0  0
    1.4112    0.4157    0.0442 H    0  0  0  0  0  0  0  0  0  0  0  0
    0.6353   -0.0085    1.5794 H    0  0  0  0  0  0  0  0  0  0  0  0
    0.4108    1.6081    0.8868 H    0  0  0  0  0  0  0  0  0  0  0  0
    0.0477    3.2842    5.1967 H    0  0  0  0  0  0  0  0  0  0  0  0
    0.2466    1.6543    5.8317 H    0  0  0  0  0  0  0  0  0  0  0  0
    1.6632    2.7077    5.6511 H    0  0  0  0  0  0  0  0  0  0  0  0
  1  2  1  0  0  0  0
  1  3  2  0  0  0  0
  1  7  1  0  0  0  0
  2  4  1  0  0  0  0
  2  5  1  0  0  0  0
  2  8  1  0  0  0  0
  3  6  1  0  0  0  0
  3  9  1  0  0  0  0
  4 10  1  0  0  0  0
  4 11  1  0  0  0  0
  4 12  1  0  0  0  0
  5 13  1  0  0  0  0
  5 14  1  0  0  0  0
  5 15  1  0  0  0  0
  6 16  1  0  0  0  0
  6 17  1  0  0  0  0
  6 18  1  0  0  0  0
M  END
