
 OpenBabel11291911143D

 19 19  0  0  0  0  0  0  0  0999 V2000
    0.6222    0.9250    0.8488 C   0  0  0  0  0  0  0  0  0  0  0  0
    1.0597   -0.2815    1.6994 C   0  0  0  0  0  0  0  0  0  0  0  0
    2.3277   -0.9573    1.1394 C   0  0  0  0  0  0  0  0  0  0  0  0
   -0.0791   -1.3048    1.8842 C   0  0  0  0  0  0  0  0  0  0  0  0
    2.0990   -1.6411   -0.2128 C   0  0  0  0  0  0  0  0  0  0  0  0
   -0.4707   -2.0122    0.5824 C   0  0  0  0  0  0  0  0  0  0  0  0
    0.9074   -3.0169   -0.0690 S   0  0  0  0  0  0  0  0  0  0  0  0
    1.4473    1.6665    0.7930 H   0  0  0  0  0  0  0  0  0  0  0  0
    0.3435    0.6407   -0.1846 H   0  0  0  0  0  0  0  0  0  0  0  0
   -0.2532    1.4210    1.3192 H   0  0  0  0  0  0  0  0  0  0  0  0
    1.3121    0.1242    2.7043 H   0  0  0  0  0  0  0  0  0  0  0  0
    3.1309   -0.1959    1.0345 H   0  0  0  0  0  0  0  0  0  0  0  0
    2.6836   -1.7228    1.8637 H   0  0  0  0  0  0  0  0  0  0  0  0
   -0.9696   -0.7880    2.3034 H   0  0  0  0  0  0  0  0  0  0  0  0
    0.2388   -2.0758    2.6203 H   0  0  0  0  0  0  0  0  0  0  0  0
    3.0646   -2.0778   -0.5441 H   0  0  0  0  0  0  0  0  0  0  0  0
    1.7786   -0.9323   -1.0033 H   0  0  0  0  0  0  0  0  0  0  0  0
   -1.3053   -2.7088    0.8082 H   0  0  0  0  0  0  0  0  0  0  0  0
   -0.8388   -1.3103   -0.1933 H   0  0  0  0  0  0  0  0  0  0  0  0
  1  2  1  0  0  0  0
  1  8  1  0  0  0  0
  1  9  1  0  0  0  0
  1 10  1  0  0  0  0
  2  3  1  0  0  0  0
  2 11  1  0  0  0  0
  3 12  1  0  0  0  0
  3 13  1  0  0  0  0
  4  2  1  0  0  0  0
  4 14  1  0  0  0  0
  4 15  1  0  0  0  0
  5  7  1  0  0  0  0
  5  3  1  0  0  0  0
  5 16  1  0  0  0  0
  5 17  1  0  0  0  0
  6  4  1  0  0  0  0
  6 18  1  0  0  0  0
  6 19  1  0  0  0  0
  7  6  1  0  0  0  0
M  END
