  4-METHYLPYRIDINE.mol	108-89-4
  NIST    07171400383D 1   1.00000  -287.60440
Copyright by the U.S. Sec. Commerce on behalf of U.S.A. All rights reserved.
 14 14  0  0  0  0  0  0  0  0999 V2000
    5.5968    0.4480   -0.3297 C    0  0  0  0  0  0  0  0  0  0  0  0
    4.3539   -0.3974   -0.1993 C    0  0  0  0  0  0  0  0  0  0  0  0
    3.0753    0.1722   -0.2128 C    0  0  0  0  0  0  0  0  0  0  0  0
    4.4207   -1.7899   -0.0809 C    0  0  0  0  0  0  0  0  0  0  0  0
    1.9558   -0.6532   -0.1160 C    0  0  0  0  0  0  0  0  0  0  0  0
    3.2407   -2.5283    0.0101 C    0  0  0  0  0  0  0  0  0  0  0  0
    2.0165   -1.9867   -0.0057 N    0  0  0  0  0  0  0  0  0  0  0  0
    5.4713    1.4217    0.1555 H    0  0  0  0  0  0  0  0  0  0  0  0
    6.4668   -0.0470    0.1135 H    0  0  0  0  0  0  0  0  0  0  0  0
    5.8301    0.6384   -1.3855 H    0  0  0  0  0  0  0  0  0  0  0  0
    2.9500    1.2491   -0.2955 H    0  0  0  0  0  0  0  0  0  0  0  0
    5.3819   -2.2976   -0.0573 H    0  0  0  0  0  0  0  0  0  0  0  0
    0.9564   -0.2201   -0.1241 H    0  0  0  0  0  0  0  0  0  0  0  0
    3.2820   -3.6127    0.1038 H    0  0  0  0  0  0  0  0  0  0  0  0
  1  2  1  0
  3  2  2  0
  2  4  1  0
  4  6  2  0
  6  7  1  0
  7  5  2  0
  3  5  1  0
  1  8  1  0
  1  9  1  0
  1 10  1  0
  3 11  1  0
  4 12  1  0
  5 13  1  0
  6 14  1  0
M  END
