  5-METHYL-CIS-2-HEPTENE.mol	24608-84-2
  NIST    08061217053D 1   1.00000  -314.47588
Copyright by the U.S. Sec. Commerce on behalf of U.S.A. All rights reserved.
 24 23  0  0  1  0  0  0  0  0999 V2000
    1.0686   -0.3585   -0.4909 C    0  0  0  0  0  0  0  0  0  0  0  0
    2.2578    0.2376    0.2101 C    0  0  0  0  0  0  0  0  0  0  0  0
    2.7948    1.4524    0.0366 C    0  0  0  0  0  0  0  0  0  0  0  0
    2.3273    2.5575   -0.8743 C    0  0  0  0  0  0  0  0  0  0  0  0
    3.4191    3.2344   -1.7423 C    0  0  0  0  0  0  0  0  0  0  0  0
    3.9937    2.3256   -2.8524 C    0  0  0  0  0  0  0  0  0  0  0  0
    4.9939    1.2565   -2.3958 C    0  0  0  0  0  0  0  0  0  0  0  0
    2.8479    4.5217   -2.3606 C    0  0  0  0  0  0  0  0  0  0  0  0
    1.3336   -1.3134   -0.9646 H    0  0  0  0  0  0  0  0  0  0  0  0
    0.6572    0.2961   -1.2640 H    0  0  0  0  0  0  0  0  0  0  0  0
    0.2629   -0.5782    0.2233 H    0  0  0  0  0  0  0  0  0  0  0  0
    2.7246   -0.4138    0.9503 H    0  0  0  0  0  0  0  0  0  0  0  0
    3.6610    1.7074    0.6502 H    0  0  0  0  0  0  0  0  0  0  0  0
    1.8826    3.3431   -0.2423 H    0  0  0  0  0  0  0  0  0  0  0  0
    1.5192    2.2109   -1.5310 H    0  0  0  0  0  0  0  0  0  0  0  0
    4.2487    3.5218   -1.0765 H    0  0  0  0  0  0  0  0  0  0  0  0
    4.4918    2.9673   -3.5926 H    0  0  0  0  0  0  0  0  0  0  0  0
    3.1584    1.8482   -3.3862 H    0  0  0  0  0  0  0  0  0  0  0  0
    5.8458    1.7137   -1.8764 H    0  0  0  0  0  0  0  0  0  0  0  0
    5.3906    0.7058   -3.2571 H    0  0  0  0  0  0  0  0  0  0  0  0
    4.5375    0.5339   -1.7144 H    0  0  0  0  0  0  0  0  0  0  0  0
    2.0236    4.2933   -3.0492 H    0  0  0  0  0  0  0  0  0  0  0  0
    3.6133    5.0624   -2.9294 H    0  0  0  0  0  0  0  0  0  0  0  0
    2.4587    5.1993   -1.5914 H    0  0  0  0  0  0  0  0  0  0  0  0
  1  2  1  0  0  0  0
  1  9  1  0  0  0  0
  1 10  1  0  0  0  0
  1 11  1  0  0  0  0
  2  3  2  0  0  0  0
  2 12  1  0  0  0  0
  3  4  1  0  0  0  0
  3 13  1  0  0  0  0
  4  5  1  0  0  0  0
  4 14  1  0  0  0  0
  4 15  1  0  0  0  0
  5  8  1  0  0  0  0
  5  6  1  0  0  0  0
  5 16  1  0  0  0  0
  6  7  1  0  0  0  0
  6 17  1  0  0  0  0
  6 18  1  0  0  0  0
  7 19  1  0  0  0  0
  7 20  1  0  0  0  0
  7 21  1  0  0  0  0
  8 22  1  0  0  0  0
  8 23  1  0  0  0  0
  8 24  1  0  0  0  0
M  END
