  5-METHYL-TRANS-2-HEXENE.mol	7385-82-2
  NIST    07011509513D 1   1.00000  -275.16846
Copyright by the U.S. Sec. Commerce on behalf of U.S.A. All rights reserved.
 21 20  0  0  0  0  0  0  0  0999 V2000
    0.7037    1.6104    1.6440 C    0  0  0  0  0  0  0  0  0  0  0  0
    2.1238    1.0277    1.6602 C    0  0  0  0  0  0  0  0  0  0  0  0
    2.5944    0.7613    3.0964 C    0  0  0  0  0  0  0  0  0  0  0  0
    3.1020    1.9548    0.8985 C    0  0  0  0  0  0  0  0  0  0  0  0
    4.4716    1.3680    0.6894 C    0  0  0  0  0  0  0  0  0  0  0  0
    5.6185    1.8916    1.1319 C    0  0  0  0  0  0  0  0  0  0  0  0
    6.9840    1.3054    0.9102 C    0  0  0  0  0  0  0  0  0  0  0  0
    0.6733    2.5807    2.1568 H    0  0  0  0  0  0  0  0  0  0  0  0
    0.3442    1.7638    0.6192 H    0  0  0  0  0  0  0  0  0  0  0  0
   -0.0044    0.9453    2.1525 H    0  0  0  0  0  0  0  0  0  0  0  0
    2.0994    0.0644    1.1271 H    0  0  0  0  0  0  0  0  0  0  0  0
    1.9224    0.0627    3.6090 H    0  0  0  0  0  0  0  0  0  0  0  0
    2.6126    1.6924    3.6785 H    0  0  0  0  0  0  0  0  0  0  0  0
    3.6045    0.3393    3.1147 H    0  0  0  0  0  0  0  0  0  0  0  0
    2.6571    2.1860   -0.0820 H    0  0  0  0  0  0  0  0  0  0  0  0
    3.1849    2.9113    1.4345 H    0  0  0  0  0  0  0  0  0  0  0  0
    4.5068    0.4334    0.1234 H    0  0  0  0  0  0  0  0  0  0  0  0
    5.5835    2.8247    1.6981 H    0  0  0  0  0  0  0  0  0  0  0  0
    7.6334    2.0015    0.3616 H    0  0  0  0  0  0  0  0  0  0  0  0
    7.4879    1.0940    1.8633 H    0  0  0  0  0  0  0  0  0  0  0  0
    6.9333    0.3713    0.3401 H    0  0  0  0  0  0  0  0  0  0  0  0
  1  2  1  0  0  0  0
  1  8  1  0  0  0  0
  1  9  1  0  0  0  0
  1 10  1  0  0  0  0
  2  3  1  0  0  0  0
  2  4  1  0  0  0  0
  2 11  1  0  0  0  0
  3 12  1  0  0  0  0
  3 13  1  0  0  0  0
  3 14  1  0  0  0  0
  4  5  1  0  0  0  0
  4 15  1  0  0  0  0
  4 16  1  0  0  0  0
  5  6  2  0  0  0  0
  5 17  1  0  0  0  0
  6  7  1  0  0  0  0
  6 18  1  0  0  0  0
  7 19  1  0  0  0  0
  7 20  1  0  0  0  0
  7 21  1  0  0  0  0
M  END
