  5-METHYLNONANE.mol	15869-85-9
  NIST    07011513333D 1   1.00000  -394.33244
Copyright by the U.S. Sec. Commerce on behalf of U.S.A. All rights reserved.
 32 31  0  0  0  0  0  0  0  0999 V2000
    5.4264    3.0509    2.1514 C    0  0  0  0  0  0  0  0  0  0  0  0
    4.7382    1.8350    1.4857 C    0  0  0  0  0  0  0  0  0  0  0  0
    3.5486    2.2054    0.5732 C    0  0  0  0  0  0  0  0  0  0  0  0
    5.7404    0.9553    0.7192 C    0  0  0  0  0  0  0  0  0  0  0  0
    6.0542    4.0812    1.1989 C    0  0  0  0  0  0  0  0  0  0  0  0
    2.4081    3.0070    1.2280 C    0  0  0  0  0  0  0  0  0  0  0  0
    6.6704    5.2984    1.9114 C    0  0  0  0  0  0  0  0  0  0  0  0
    1.7109    2.3318    2.4225 C    0  0  0  0  0  0  0  0  0  0  0  0
    7.8961    4.9811    2.7767 C    0  0  0  0  0  0  0  0  0  0  0  0
    1.0267    1.0010    2.0877 C    0  0  0  0  0  0  0  0  0  0  0  0
    4.7001    3.5681    2.7944 H    0  0  0  0  0  0  0  0  0  0  0  0
    6.1999    2.6650    2.8291 H    0  0  0  0  0  0  0  0  0  0  0  0
    4.3447    1.2210    2.3096 H    0  0  0  0  0  0  0  0  0  0  0  0
    3.1405    1.2757    0.1530 H    0  0  0  0  0  0  0  0  0  0  0  0
    3.9209    2.7747   -0.2898 H    0  0  0  0  0  0  0  0  0  0  0  0
    6.5924    0.6775    1.3518 H    0  0  0  0  0  0  0  0  0  0  0  0
    6.1358    1.4680   -0.1658 H    0  0  0  0  0  0  0  0  0  0  0  0
    5.2649    0.0293    0.3744 H    0  0  0  0  0  0  0  0  0  0  0  0
    6.8280    3.6008    0.5839 H    0  0  0  0  0  0  0  0  0  0  0  0
    5.2901    4.4442    0.4987 H    0  0  0  0  0  0  0  0  0  0  0  0
    1.6532    3.2177    0.4565 H    0  0  0  0  0  0  0  0  0  0  0  0
    2.7862    3.9866    1.5499 H    0  0  0  0  0  0  0  0  0  0  0  0
    5.9010    5.7814    2.5312 H    0  0  0  0  0  0  0  0  0  0  0  0
    6.9563    6.0392    1.1523 H    0  0  0  0  0  0  0  0  0  0  0  0
    0.9595    3.0281    2.8190 H    0  0  0  0  0  0  0  0  0  0  0  0
    2.4317    2.1760    3.2365 H    0  0  0  0  0  0  0  0  0  0  0  0
    8.3209    5.8956    3.2065 H    0  0  0  0  0  0  0  0  0  0  0  0
    8.6820    4.4967    2.1833 H    0  0  0  0  0  0  0  0  0  0  0  0
    7.6498    4.3121    3.6089 H    0  0  0  0  0  0  0  0  0  0  0  0
    1.7478    0.2381    1.7728 H    0  0  0  0  0  0  0  0  0  0  0  0
    0.2995    1.1236    1.2751 H    0  0  0  0  0  0  0  0  0  0  0  0
    0.4895    0.6050    2.9572 H    0  0  0  0  0  0  0  0  0  0  0  0
  1  2  1  0  0  0  0
  1  5  1  0  0  0  0
  1 11  1  0  0  0  0
  1 12  1  0  0  0  0
  2  3  1  0  0  0  0
  2  4  1  0  0  0  0
  2 13  1  0  0  0  0
  3  6  1  0  0  0  0
  3 14  1  0  0  0  0
  3 15  1  0  0  0  0
  4 16  1  0  0  0  0
  4 17  1  0  0  0  0
  4 18  1  0  0  0  0
  5  7  1  0  0  0  0
  5 19  1  0  0  0  0
  5 20  1  0  0  0  0
  6  8  1  0  0  0  0
  6 21  1  0  0  0  0
  6 22  1  0  0  0  0
  7  9  1  0  0  0  0
  7 23  1  0  0  0  0
  7 24  1  0  0  0  0
  8 10  1  0  0  0  0
  8 25  1  0  0  0  0
  8 26  1  0  0  0  0
  9 27  1  0  0  0  0
  9 28  1  0  0  0  0
  9 29  1  0  0  0  0
 10 30  1  0  0  0  0
 10 31  1  0  0  0  0
 10 32  1  0  0  0  0
M  END
