  5-METHYL-2-HEXYNE.mol	53566-37-3
  NIST    07011508473D 1   1.00000  -273.92119
Copyright by the U.S. Sec. Commerce on behalf of U.S.A. All rights reserved.
 19 18  0  0  0  0  0  0  0  0999 V2000
    3.1525    3.2255    1.0698 C    0  0  0  0  0  0  0  0  0  0  0  0
    1.9711    2.7303    1.9437 C    0  0  0  0  0  0  0  0  0  0  0  0
    4.3822    2.4451    1.2266 C    0  0  0  0  0  0  0  0  0  0  0  0
    1.5680    1.2948    1.5854 C    0  0  0  0  0  0  0  0  0  0  0  0
    0.7829    3.6926    1.8166 C    0  0  0  0  0  0  0  0  0  0  0  0
    5.3932    1.7960    1.3717 C    0  0  0  0  0  0  0  0  0  0  0  0
    6.6205    1.0204    1.5398 C    0  0  0  0  0  0  0  0  0  0  0  0
    2.8399    3.2144    0.0143 H    0  0  0  0  0  0  0  0  0  0  0  0
    3.3575    4.2782    1.3121 H    0  0  0  0  0  0  0  0  0  0  0  0
    2.3140    2.7399    2.9878 H    0  0  0  0  0  0  0  0  0  0  0  0
    0.7664    0.9369    2.2422 H    0  0  0  0  0  0  0  0  0  0  0  0
    1.2014    1.2389    0.5516 H    0  0  0  0  0  0  0  0  0  0  0  0
    2.4180    0.6112    1.6784 H    0  0  0  0  0  0  0  0  0  0  0  0
    0.4157    3.7289    0.7825 H    0  0  0  0  0  0  0  0  0  0  0  0
   -0.0509    3.3737    2.4526 H    0  0  0  0  0  0  0  0  0  0  0  0
    1.0573    4.7131    2.1099 H    0  0  0  0  0  0  0  0  0  0  0  0
    7.5105    1.6480    1.4074 H    0  0  0  0  0  0  0  0  0  0  0  0
    6.6780    0.5746    2.5406 H    0  0  0  0  0  0  0  0  0  0  0  0
    6.6817    0.2030    0.8106 H    0  0  0  0  0  0  0  0  0  0  0  0
  1  2  1  0  0  0  0
  1  3  1  0  0  0  0
  1  8  1  0  0  0  0
  1  9  1  0  0  0  0
  2  4  1  0  0  0  0
  2  5  1  0  0  0  0
  2 10  1  0  0  0  0
  3  6  3  0  0  0  0
  4 11  1  0  0  0  0
  4 12  1  0  0  0  0
  4 13  1  0  0  0  0
  5 14  1  0  0  0  0
  5 15  1  0  0  0  0
  5 16  1  0  0  0  0
  6  7  1  0  0  0  0
  7 17  1  0  0  0  0
  7 18  1  0  0  0  0
  7 19  1  0  0  0  0
M  END
