  6-METHYL-1-HEPTENE.mol	5026-76-6
  NIST    07011513583D 1   1.00000  -314.47391
Copyright by the U.S. Sec. Commerce on behalf of U.S.A. All rights reserved.
 24 23  0  0  0  0  0  0  0  0999 V2000
    3.4874    1.8508    2.2780 C    0  0  0  0  0  0  0  0  0  0  0  0
    4.6619    1.1583    2.9838 C    0  0  0  0  0  0  0  0  0  0  0  0
    2.1042    1.2206    2.5417 C    0  0  0  0  0  0  0  0  0  0  0  0
    6.0422    1.7898    2.6913 C    0  0  0  0  0  0  0  0  0  0  0  0
    1.6755    1.3286    4.0133 C    0  0  0  0  0  0  0  0  0  0  0  0
    1.0437    1.8527    1.6274 C    0  0  0  0  0  0  0  0  0  0  0  0
    6.4900    1.6716    1.2583 C    0  0  0  0  0  0  0  0  0  0  0  0
    7.5525    0.9783    0.8461 C    0  0  0  0  0  0  0  0  0  0  0  0
    3.4580    2.9111    2.5753 H    0  0  0  0  0  0  0  0  0  0  0  0
    3.6646    1.8437    1.1940 H    0  0  0  0  0  0  0  0  0  0  0  0
    4.5054    1.1815    4.0697 H    0  0  0  0  0  0  0  0  0  0  0  0
    4.6885    0.0982    2.6952 H    0  0  0  0  0  0  0  0  0  0  0  0
    2.1722    0.1514    2.2868 H    0  0  0  0  0  0  0  0  0  0  0  0
    6.7929    1.3200    3.3397 H    0  0  0  0  0  0  0  0  0  0  0  0
    6.0052    2.8531    2.9751 H    0  0  0  0  0  0  0  0  0  0  0  0
    1.6169    2.3800    4.3255 H    0  0  0  0  0  0  0  0  0  0  0  0
    2.3726    0.8188    4.6868 H    0  0  0  0  0  0  0  0  0  0  0  0
    0.6854    0.8827    4.1662 H    0  0  0  0  0  0  0  0  0  0  0  0
    0.0618    1.3876    1.7752 H    0  0  0  0  0  0  0  0  0  0  0  0
    0.9367    2.9256    1.8348 H    0  0  0  0  0  0  0  0  0  0  0  0
    1.3109    1.7437    0.5694 H    0  0  0  0  0  0  0  0  0  0  0  0
    5.8870    2.1949    0.5153 H    0  0  0  0  0  0  0  0  0  0  0  0
    8.1914    0.4423    1.5460 H    0  0  0  0  0  0  0  0  0  0  0  0
    7.8292    0.9204   -0.2034 H    0  0  0  0  0  0  0  0  0  0  0  0
  1  2  1  0  0  0  0
  1  3  1  0  0  0  0
  1  9  1  0  0  0  0
  1 10  1  0  0  0  0
  2  4  1  0  0  0  0
  2 11  1  0  0  0  0
  2 12  1  0  0  0  0
  3  5  1  0  0  0  0
  3  6  1  0  0  0  0
  3 13  1  0  0  0  0
  4  7  1  0  0  0  0
  4 14  1  0  0  0  0
  4 15  1  0  0  0  0
  5 16  1  0  0  0  0
  5 17  1  0  0  0  0
  5 18  1  0  0  0  0
  6 19  1  0  0  0  0
  6 20  1  0  0  0  0
  6 21  1  0  0  0  0
  7  8  2  0  0  0  0
  7 22  1  0  0  0  0
  8 23  1  0  0  0  0
  8 24  1  0  0  0  0
M  END
