
 OpenBabel02061909473D

 23 22  0  0  0  0  0  0  0  0999 V2000
    2.5635    4.1021   -1.6264 C   0  0  0  0  0  0  0  0  0  0  0  0
    2.8923    2.6925   -1.2029 C   0  0  0  0  0  0  0  0  0  0  0  0
    2.5913    1.6201   -1.9734 C   0  0  0  0  0  0  0  0  0  0  0  0
    3.5796    2.4903    0.1230 C   0  0  0  0  0  0  0  0  0  0  0  0
    1.9043    1.6994   -3.3188 C   0  0  0  0  0  0  0  0  0  0  0  0
    2.8075    1.0997   -4.4040 C   0  0  0  0  0  0  0  0  0  0  0  0
    2.2305    1.0752   -5.8067 C   0  0  0  0  0  0  0  0  0  0  0  0
    0.8579    1.5881   -6.1617 C   0  0  0  0  0  0  0  0  0  0  0  0
    2.9188    0.6112   -6.7027 O   0  0  0  0  0  0  0  0  0  0  0  0
    1.4666    4.2150   -1.7576 H   0  0  0  0  0  0  0  0  0  0  0  0
    3.0836    4.3453   -2.5770 H   0  0  0  0  0  0  0  0  0  0  0  0
    2.8935    4.8330   -0.8580 H   0  0  0  0  0  0  0  0  0  0  0  0
    2.8531    0.6272   -1.6165 H   0  0  0  0  0  0  0  0  0  0  0  0
    2.9417    2.8966    0.9358 H   0  0  0  0  0  0  0  0  0  0  0  0
    4.5506    3.0285    0.1219 H   0  0  0  0  0  0  0  0  0  0  0  0
    3.7768    1.4184    0.3391 H   0  0  0  0  0  0  0  0  0  0  0  0
    1.6537    2.7416   -3.6000 H   0  0  0  0  0  0  0  0  0  0  0  0
    0.9617    1.1154   -3.2506 H   0  0  0  0  0  0  0  0  0  0  0  0
    3.0544    0.0523   -4.1228 H   0  0  0  0  0  0  0  0  0  0  0  0
    3.7522    1.6859   -4.4351 H   0  0  0  0  0  0  0  0  0  0  0  0
    0.2897    1.9908   -5.3032 H   0  0  0  0  0  0  0  0  0  0  0  0
    0.2629    0.7610   -6.6024 H   0  0  0  0  0  0  0  0  0  0  0  0
    0.9549    2.3983   -6.9144 H   0  0  0  0  0  0  0  0  0  0  0  0
  1  2  1  0  0  0  0
  1 10  1  0  0  0  0
  1 11  1  0  0  0  0
  1 12  1  0  0  0  0
  2  3  2  0  0  0  0
  2  4  1  0  0  0  0
  3  5  1  0  0  0  0
  3 13  1  0  0  0  0
  4 14  1  0  0  0  0
  4 15  1  0  0  0  0
  4 16  1  0  0  0  0
  5  6  1  0  0  0  0
  5 17  1  0  0  0  0
  5 18  1  0  0  0  0
  6  7  1  0  0  0  0
  6 19  1  0  0  0  0
  6 20  1  0  0  0  0
  7  8  1  0  0  0  0
  7  9  2  0  0  0  0
  8 21  1  0  0  0  0
  8 22  1  0  0  0  0
  8 23  1  0  0  0  0
M  END
