  8-HYDROXYQUINOLINE.mol	148-24-3
  NIST    06211411573D 1   1.00000  -477.15646
Copyright by the U.S. Sec. Commerce on behalf of U.S.A. All rights reserved.
 18 19  0  0  0  0  0  0  0  0999 V2000
   -3.4955   -3.4284    1.2749 C    0  0  0  0  0  0  0  0  0  0  0  0
   -2.1069   -3.6163    1.0097 C    0  0  0  0  0  0  0  0  0  0  0  0
   -4.3855   -4.5186    1.0958 C    0  0  0  0  0  0  0  0  0  0  0  0
   -3.8805   -2.1331    1.7069 C    0  0  0  0  0  0  0  0  0  0  0  0
   -1.6304   -4.8911    0.5696 C    0  0  0  0  0  0  0  0  0  0  0  0
   -1.1712   -2.6387    1.1492 N    0  0  0  0  0  0  0  0  0  0  0  0
   -2.5193   -5.9348    0.4037 C    0  0  0  0  0  0  0  0  0  0  0  0
   -0.3094   -5.0334    0.3273 O    0  0  0  0  0  0  0  0  0  0  0  0
   -3.8939   -5.7356    0.6701 C    0  0  0  0  0  0  0  0  0  0  0  0
   -2.9285   -1.1480    1.8460 C    0  0  0  0  0  0  0  0  0  0  0  0
   -1.5758   -1.4498    1.5533 C    0  0  0  0  0  0  0  0  0  0  0  0
   -5.4449   -4.3835    1.2959 H    0  0  0  0  0  0  0  0  0  0  0  0
   -4.9271   -1.9322    1.9241 H    0  0  0  0  0  0  0  0  0  0  0  0
   -2.1504   -6.8991    0.0696 H    0  0  0  0  0  0  0  0  0  0  0  0
    0.0810   -4.1532    0.5215 H    0  0  0  0  0  0  0  0  0  0  0  0
   -4.5755   -6.5708    0.5328 H    0  0  0  0  0  0  0  0  0  0  0  0
   -3.1970   -0.1486    2.1747 H    0  0  0  0  0  0  0  0  0  0  0  0
   -0.8105   -0.6824    1.6580 H    0  0  0  0  0  0  0  0  0  0  0  0
  5  8  1  0
 11 10  1  0
 10  4  2  0
  4  1  1  0
  1  3  2  0
  3  9  1  0
  9  7  2  0
  7  5  1  0
  5  2  2  0
  1  2  1  0
  2  6  1  0
 11  6  2  0
  3 12  1  0
  4 13  1  0
  7 14  1  0
  8 15  1  0
  9 16  1  0
 10 17  1  0
 11 18  1  0
M  END
