
 OpenBabel09271915223D

 24 24  0  0  0  0  0  0  0  0999 V2000
   -1.9063    2.4184   -2.1115 C   0  0  2  0  0  0  0  0  0  0  0  0
   -1.7197    1.0249   -2.1148 O   0  0  0  0  0  0  0  0  0  0  0  0
   -1.0248    3.0650   -3.1900 C   0  0  0  0  0  0  0  0  0  0  0  0
   -1.5145    2.9926   -0.7450 C   0  0  2  0  0  0  0  0  0  0  0  0
   -2.9809    2.6493   -2.2995 H   0  0  0  0  0  0  0  0  0  0  0  0
    0.3576    2.8321   -2.9521 O   0  0  0  0  0  0  0  0  0  0  0  0
   -1.2397    4.1476   -3.2960 H   0  0  0  0  0  0  0  0  0  0  0  0
   -1.2883    2.6184   -4.1719 H   0  0  0  0  0  0  0  0  0  0  0  0
   -0.0063    2.7669   -0.5325 C   0  0  2  0  0  0  0  0  0  0  0  0
   -2.2599    2.3544    0.2600 O   0  0  0  0  0  0  0  0  0  0  0  0
   -1.7475    4.0828   -0.7475 H   0  0  0  0  0  0  0  0  0  0  0  0
    0.1880    1.6664   -0.5394 H   0  0  0  0  0  0  0  0  0  0  0  0
    0.4100    3.3063    0.6968 O   0  0  0  0  0  0  0  0  0  0  0  0
    0.8200    3.3710   -1.7085 C   0  0  1  0  0  0  0  0  0  0  0  0
    2.1489    2.9466   -1.5229 O   0  0  0  0  0  0  0  0  0  0  0  0
    0.8270    4.9285   -1.7350 C   0  0  0  0  0  0  0  0  0  0  0  0
   -2.2365    0.6676   -2.8836 H   0  0  0  0  0  0  0  0  0  0  0  0
   -2.2798    2.9681    1.0402 H   0  0  0  0  0  0  0  0  0  0  0  0
    0.2443    2.6164    1.3913 H   0  0  0  0  0  0  0  0  0  0  0  0
    1.4328    5.4367   -0.5774 O   0  0  0  0  0  0  0  0  0  0  0  0
    1.4155    5.2553   -2.6220 H   0  0  0  0  0  0  0  0  0  0  0  0
   -0.1950    5.3491   -1.8165 H   0  0  0  0  0  0  0  0  0  0  0  0
    1.4709    6.4218   -0.6927 H   0  0  0  0  0  0  0  0  0  0  0  0
    2.6470    3.1381   -2.3609 H   0  0  0  0  0  0  0  0  0  0  0  0
  1  2  1  0  0  0  0
  1  3  1  0  0  0  0
  1  4  1  0  0  0  0
  1  5  1  6  0  0  0
  2 17  1  0  0  0  0
  3  6  1  0  0  0  0
  3  7  1  0  0  0  0
  3  8  1  0  0  0  0
  4  9  1  0  0  0  0
  4 10  1  0  0  0  0
  4 11  1  1  0  0  0
  9 12  1  1  0  0  0
  9 13  1  0  0  0  0
  9 14  1  0  0  0  0
 10 18  1  0  0  0  0
 13 19  1  0  0  0  0
 14  6  1  0  0  0  0
 14 15  1  1  0  0  0
 14 16  1  0  0  0  0
 15 24  1  0  0  0  0
 16 20  1  0  0  0  0
 16 21  1  0  0  0  0
 16 22  1  0  0  0  0
 20 23  1  0  0  0  0
M  END
