
 OpenBabel09271914483D

 24 24  0  0  0  0  0  0  0  0999 V2000
    3.2419   -0.0827    1.1235 O   0  0  0  0  0  0  0  0  0  0  0  0
    3.9866   -0.1218    2.3348 C   0  0  2  0  0  0  0  0  0  0  0  0
    3.0339    0.3328    3.4578 C   0  0  2  0  0  0  0  0  0  0  0  0
    1.7565   -0.3175    2.9826 C   0  0  1  0  0  0  0  0  0  0  0  0
    1.8632   -0.0752    1.4657 C   0  0  1  0  0  0  0  0  0  0  0  0
    1.3219   -0.8867    0.9302 H   0  0  0  0  0  0  0  0  0  0  0  0
    1.2362    1.2483    0.9916 C   0  0  0  0  0  0  0  0  0  0  0  0
    0.8384    0.0802    3.4734 H   0  0  0  0  0  0  0  0  0  0  0  0
    1.8310   -1.6969    3.2492 O   0  0  0  0  0  0  0  0  0  0  0  0
    3.3755    0.0174    4.4711 H   0  0  0  0  0  0  0  0  0  0  0  0
    2.8964    1.7317    3.4564 O   0  0  0  0  0  0  0  0  0  0  0  0
    5.2393    0.7686    2.2333 C   0  0  0  0  0  0  0  0  0  0  0  0
    4.3899   -1.4495    2.5811 O   0  0  0  0  0  0  0  0  0  0  0  0
    1.3579    1.3064   -0.1136 H   0  0  0  0  0  0  0  0  0  0  0  0
    1.7379    2.1290    1.4390 H   0  0  0  0  0  0  0  0  0  0  0  0
   -0.1283    1.2676    1.3089 O   0  0  0  0  0  0  0  0  0  0  0  0
   -0.4902    2.1074    0.9233 H   0  0  0  0  0  0  0  0  0  0  0  0
    0.9523   -2.0846    2.9969 H   0  0  0  0  0  0  0  0  0  0  0  0
    2.3070    1.9614    4.2217 H   0  0  0  0  0  0  0  0  0  0  0  0
    4.7904   -1.7997    1.7425 H   0  0  0  0  0  0  0  0  0  0  0  0
    5.9576    0.7267    3.4359 O   0  0  0  0  0  0  0  0  0  0  0  0
    6.7512    1.3074    3.3029 H   0  0  0  0  0  0  0  0  0  0  0  0
    4.9414    1.8164    2.0058 H   0  0  0  0  0  0  0  0  0  0  0  0
    5.8789    0.3934    1.4031 H   0  0  0  0  0  0  0  0  0  0  0  0
  1  2  1  0  0  0  0
  1  5  1  0  0  0  0
  2  3  1  0  0  0  0
  2 12  1  6  0  0  0
  3  4  1  0  0  0  0
  3 10  1  1  0  0  0
  4  5  1  0  0  0  0
  4  8  1  1  0  0  0
  5  6  1  6  0  0  0
  7  5  1  0  0  0  0
  9  4  1  0  0  0  0
 11  3  1  0  0  0  0
 13  2  1  0  0  0  0
 14  7  1  0  0  0  0
 15  7  1  0  0  0  0
 16  7  1  0  0  0  0
 17 16  1  0  0  0  0
 18  9  1  0  0  0  0
 19 11  1  0  0  0  0
 20 13  1  0  0  0  0
 21 12  1  0  0  0  0
 22 21  1  0  0  0  0
 23 12  1  0  0  0  0
 24 12  1  0  0  0  0
M  END
