
 OpenBabel09131614353D

 26 27  0  0  1  0  0  0  0  0999 V2000
   -3.3055    2.6185    0.8853 C   0  0  1  0  0  0  0  0  0  0  0  0
   -2.2138    2.0778   -0.0807 C   0  0  0  0  0  0  0  0  0  0  0  0
   -2.9039    0.6944    0.1022 C   0  0  2  0  0  0  0  0  0  0  0  0
   -2.0998    2.6878   -1.5013 C   0  0  0  0  0  0  0  0  0  0  0  0
   -3.0548    2.7253   -2.0573 H   0  0  0  0  0  0  0  0  0  0  0  0
   -1.3882    2.0918   -2.1112 H   0  0  0  0  0  0  0  0  0  0  0  0
   -1.7242    3.7309   -1.4335 H   0  0  0  0  0  0  0  0  0  0  0  0
   -0.7930    2.1155    0.5521 C   0  0  0  0  0  0  0  0  0  0  0  0
   -0.0882    1.5289   -0.0752 H   0  0  0  0  0  0  0  0  0  0  0  0
   -0.7216    1.7087    1.5779 H   0  0  0  0  0  0  0  0  0  0  0  0
   -0.4306    3.1648    0.5973 H   0  0  0  0  0  0  0  0  0  0  0  0
   -4.6201    2.8256    0.1235 C   0  0  0  0  0  0  0  0  0  0  0  0
   -4.1757    0.5759   -0.8039 C   0  0  0  0  0  0  0  0  0  0  0  0
   -5.0382    1.8274   -0.6882 C   0  0  0  0  0  0  0  0  0  0  0  0
   -4.7731   -0.3049   -0.4860 H   0  0  0  0  0  0  0  0  0  0  0  0
   -3.8708    0.4294   -1.8614 H   0  0  0  0  0  0  0  0  0  0  0  0
   -3.3870    1.1936    1.4887 C   0  0  0  0  0  0  0  0  0  0  0  0
   -2.2852   -0.2269    0.0456 H   0  0  0  0  0  0  0  0  0  0  0  0
   -2.6021    1.0458    2.2583 H   0  0  0  0  0  0  0  0  0  0  0  0
   -4.3566    0.8259    1.8930 H   0  0  0  0  0  0  0  0  0  0  0  0
   -3.0574    3.4743    1.5491 H   0  0  0  0  0  0  0  0  0  0  0  0
   -5.9626    1.9112   -1.2518 H   0  0  0  0  0  0  0  0  0  0  0  0
   -5.4250    4.0836    0.2730 C   0  0  0  0  0  0  0  0  0  0  0  0
   -4.9353    4.7882    0.9770 H   0  0  0  0  0  0  0  0  0  0  0  0
   -6.4351    3.8384    0.6634 H   0  0  0  0  0  0  0  0  0  0  0  0
   -5.5253    4.5829   -0.7136 H   0  0  0  0  0  0  0  0  0  0  0  0
  1  2  1  0  0  0  0
  1 12  1  0  0  0  0
  1 21  1  1  0  0  0
  2  3  1  0  0  0  0
  2  4  1  0  0  0  0
  2  8  1  0  0  0  0
  3 13  1  0  0  0  0
  3 17  1  0  0  0  0
  3 18  1  1  0  0  0
  4  5  1  0  0  0  0
  4  6  1  0  0  0  0
  4  7  1  0  0  0  0
  8  9  1  0  0  0  0
  8 10  1  0  0  0  0
  8 11  1  0  0  0  0
 12 23  1  0  0  0  0
 13 14  1  0  0  0  0
 13 15  1  0  0  0  0
 13 16  1  0  0  0  0
 14 12  2  0  0  0  0
 14 22  1  0  0  0  0
 17  1  1  0  0  0  0
 17 19  1  0  0  0  0
 17 20  1  0  0  0  0
 23 24  1  0  0  0  0
 23 25  1  0  0  0  0
 23 26  1  0  0  0  0
M  END
