
 OpenBabel06061914273D

  8  7  0  0  0  0  0  0  0  0999 V2000
    1.2821   -0.8964    1.4671 C   0  0  0  0  0  0  0  0  0  0  0  0
    2.7111   -1.3236    1.5649 C   0  0  0  0  0  0  0  0  0  0  0  0
    2.9823   -2.4925    1.7944 O   0  0  0  0  0  0  0  0  0  0  0  0
    1.2185    0.1919    1.2555 H   0  0  0  0  0  0  0  0  0  0  0  0
    0.7807   -1.4524    0.6474 H   0  0  0  0  0  0  0  0  0  0  0  0
    0.7622   -1.1077    2.4250 H   0  0  0  0  0  0  0  0  0  0  0  0
    3.6989   -0.4186    1.3997 O   0  0  0  0  0  0  0  0  0  0  0  0
    4.6296   -0.6773    1.4596 H   0  0  0  0  0  0  0  0  0  0  0  0
  1  4  1  0  0  0  0
  1  6  1  0  0  0  0
  2  1  1  0  0  0  0
  2  7  1  0  0  0  0
  3  2  2  0  0  0  0
  5  1  1  0  0  0  0
  7  8  1  0  0  0  0
M  END
