  ACETYLENE.mol	74-86-2
  NIST    07011509273D 1   1.00000   -77.32565
Copyright by the U.S. Sec. Commerce on behalf of U.S.A. All rights reserved.
  4  3  0  0  0  0  0  0  0  0999 V2000
    0.0000    0.0000   -0.6025 C    0  0  0  0  0  0  0  0  0  0  0  0
    0.0000    0.0000   -1.6691 H    0  0  0  0  0  0  0  0  0  0  0  0
    0.0000    0.0000    0.6025 C    0  0  0  0  0  0  0  0  0  0  0  0
    0.0000    0.0000    1.6691 H    0  0  0  0  0  0  0  0  0  0  0  0
  1  2  1  0  0  0  0
  1  3  3  0  0  0  0
  3  4  1  0  0  0  0
M  END
