  ACETIC ANHYDRIDE.mol	108-24-7
  NIST    06301517003D 1   1.00000  -381.72788
Copyright by the U.S. Sec. Commerce on behalf of U.S.A. All rights reserved.
 13 12  0  0  0  0  0  0  0  0999 V2000
    3.2725    1.6210    1.6018 O    0  0  0  0  0  0  0  0  0  0  0  0
    2.0376    2.0975    1.1567 C    0  0  0  0  0  0  0  0  0  0  0  0
    4.4667    2.0836    1.0449 C    0  0  0  0  0  0  0  0  0  0  0  0
    1.0142    1.9493    2.2523 C    0  0  0  0  0  0  0  0  0  0  0  0
    1.8486    2.5086    0.0472 O    0  0  0  0  0  0  0  0  0  0  0  0
    5.5410    1.0416    1.2167 C    0  0  0  0  0  0  0  0  0  0  0  0
    4.5910    3.1711    0.5573 O    0  0  0  0  0  0  0  0  0  0  0  0
    1.2710    2.6108    3.0872 H    0  0  0  0  0  0  0  0  0  0  0  0
    0.0278    2.2079    1.8659 H    0  0  0  0  0  0  0  0  0  0  0  0
    1.0137    0.9242    2.6363 H    0  0  0  0  0  0  0  0  0  0  0  0
    6.4994    1.4508    0.8955 H    0  0  0  0  0  0  0  0  0  0  0  0
    5.5970    0.7214    2.2620 H    0  0  0  0  0  0  0  0  0  0  0  0
    5.2951    0.1581    0.6171 H    0  0  0  0  0  0  0  0  0  0  0  0
  1  2  1  0  0  0  0
  1  3  1  0  0  0  0
  2  4  1  0  0  0  0
  2  5  2  0  0  0  0
  3  6  1  0  0  0  0
  3  7  2  0  0  0  0
  4  8  1  0  0  0  0
  4  9  1  0  0  0  0
  4 10  1  0  0  0  0
  6 11  1  0  0  0  0
  6 12  1  0  0  0  0
  6 13  1  0  0  0  0
M  END
