  ACRYLONITRILE.mol	107-13-1
  NIST    07011509303D 1   1.00000  -170.83155
Copyright by the U.S. Sec. Commerce on behalf of U.S.A. All rights reserved.
  7  6  0  0  0  0  0  0  0  0999 V2000
    1.1411    0.8447    0.1562 C    0  0  0  0  0  0  0  0  0  0  0  0
    2.5645    0.9641    0.0684 C    0  0  0  0  0  0  0  0  0  0  0  0
    3.1971    2.1438    0.0660 C    0  0  0  0  0  0  0  0  0  0  0  0
   -0.0140    0.7237    0.2266 N    0  0  0  0  0  0  0  0  0  0  0  0
    3.1156    0.0289    0.0025 H    0  0  0  0  0  0  0  0  0  0  0  0
    4.2792    2.1916   -0.0019 H    0  0  0  0  0  0  0  0  0  0  0  0
    2.6577    3.0835    0.1313 H    0  0  0  0  0  0  0  0  0  0  0  0
  1  2  1  0  0  0  0
  1  4  3  0  0  0  0
  2  3  2  0  0  0  0
  2  5  1  0  0  0  0
  3  6  1  0  0  0  0
  3  7  1  0  0  0  0
M  END
