  ACRYLAMIDE.mol	79-06-1
  NIST    07021514213D 1   1.00000  -247.29156
Copyright by the U.S. Sec. Commerce on behalf of U.S.A. All rights reserved.
 10  9  0  0  0  0  0  0  0  0999 V2000
    3.1721    1.9781    0.1352 C    0  0  0  0  0  0  0  0  0  0  0  0
    1.6804    2.0821    0.1957 C    0  0  0  0  0  0  0  0  0  0  0  0
    1.0208    0.8830    0.0966 N    0  0  0  0  0  0  0  0  0  0  0  0
    1.0860    3.1423    0.3431 O    0  0  0  0  0  0  0  0  0  0  0  0
    3.9311    3.0715    0.2162 C    0  0  0  0  0  0  0  0  0  0  0  0
    3.6183    0.9907    0.0255 H    0  0  0  0  0  0  0  0  0  0  0  0
    0.0128    0.9088    0.0350 H    0  0  0  0  0  0  0  0  0  0  0  0
    1.4905    0.0330   -0.1767 H    0  0  0  0  0  0  0  0  0  0  0  0
    3.4637    4.0458    0.3285 H    0  0  0  0  0  0  0  0  0  0  0  0
    5.0151    3.0248    0.1747 H    0  0  0  0  0  0  0  0  0  0  0  0
  1  2  1  0  0  0  0
  1  5  2  0  0  0  0
  1  6  1  0  0  0  0
  2  3  1  0  0  0  0
  2  4  2  0  0  0  0
  3  7  1  0  0  0  0
  3  8  1  0  0  0  0
  5  9  1  0  0  0  0
  5 10  1  0  0  0  0
M  END
