  ACRYLIC ACID.mol	79-10-7
  NIST    07011509343D 1   1.00000  -267.16072
Copyright by the U.S. Sec. Commerce on behalf of U.S.A. All rights reserved.
  9  8  0  0  0  0  0  0  0  0999 V2000
    2.7001    2.3341    0.2214 C    0  0  0  0  0  0  0  0  0  0  0  0
    1.8244    1.1461    0.3686 C    0  0  0  0  0  0  0  0  0  0  0  0
    0.5173    1.4730    0.1945 O    0  0  0  0  0  0  0  0  0  0  0  0
    2.1879    0.0137    0.6120 O    0  0  0  0  0  0  0  0  0  0  0  0
    4.0232    2.2232    0.3563 C    0  0  0  0  0  0  0  0  0  0  0  0
    2.2141    3.2801    0.0022 H    0  0  0  0  0  0  0  0  0  0  0  0
    0.0169    0.6432    0.3068 H    0  0  0  0  0  0  0  0  0  0  0  0
    4.6818    3.0801    0.2525 H    0  0  0  0  0  0  0  0  0  0  0  0
    4.4745    1.2597    0.5757 H    0  0  0  0  0  0  0  0  0  0  0  0
  1  2  1  0  0  0  0
  1  5  2  0  0  0  0
  1  6  1  0  0  0  0
  2  3  1  0  0  0  0
  2  4  2  0  0  0  0
  3  7  1  0  0  0  0
  5  8  1  0  0  0  0
  5  9  1  0  0  0  0
M  END
