
 OpenBabel09271909403D

 20 19  0  0  0  0  0  0  0  0999 V2000
    5.9778    5.6961   -3.7419 C   0  0  0  0  0  0  0  0  0  0  0  0
    5.8169    4.9873   -2.3917 C   0  0  0  0  0  0  0  0  0  0  0  0
    6.9069    3.9284   -2.1935 C   0  0  0  0  0  0  0  0  0  0  0  0
    4.8854    6.7532   -3.9413 C   0  0  0  0  0  0  0  0  0  0  0  0
    6.7457    3.2379   -0.8699 C   0  0  0  0  0  0  0  0  0  0  0  0
    5.0381    7.4436   -5.2659 C   0  0  0  0  0  0  0  0  0  0  0  0
    6.8174    3.9504    0.2748 O   0  0  0  0  0  0  0  0  0  0  0  0
    6.5576    2.0311   -0.8284 O   0  0  0  0  0  0  0  0  0  0  0  0
    4.0467    7.3721   -6.1794 O   0  0  0  0  0  0  0  0  0  0  0  0
    6.0539    8.0768   -5.5137 O   0  0  0  0  0  0  0  0  0  0  0  0
    6.9767    6.1846   -3.7810 H   0  0  0  0  0  0  0  0  0  0  0  0
    5.9137    4.9460   -4.5612 H   0  0  0  0  0  0  0  0  0  0  0  0
    5.8794    5.7398   -1.5746 H   0  0  0  0  0  0  0  0  0  0  0  0
    4.8191    4.4963   -2.3506 H   0  0  0  0  0  0  0  0  0  0  0  0
    7.9093    4.4072   -2.2252 H   0  0  0  0  0  0  0  0  0  0  0  0
    6.8462    3.1805   -3.0151 H   0  0  0  0  0  0  0  0  0  0  0  0
    4.9407    7.5131   -3.1319 H   0  0  0  0  0  0  0  0  0  0  0  0
    3.8883    6.2626   -3.8981 H   0  0  0  0  0  0  0  0  0  0  0  0
    6.7184    3.5228    1.1373 H   0  0  0  0  0  0  0  0  0  0  0  0
    4.1244    7.8126   -7.0375 H   0  0  0  0  0  0  0  0  0  0  0  0
  1  2  1  0  0  0  0
  1  4  1  0  0  0  0
  1 11  1  0  0  0  0
  1 12  1  0  0  0  0
  2  3  1  0  0  0  0
  2 13  1  0  0  0  0
  2 14  1  0  0  0  0
  3  5  1  0  0  0  0
  3 15  1  0  0  0  0
  3 16  1  0  0  0  0
  4  6  1  0  0  0  0
  4 17  1  0  0  0  0
  4 18  1  0  0  0  0
  5  7  1  0  0  0  0
  5  8  2  0  0  0  0
  6  9  1  0  0  0  0
  6 10  2  0  0  0  0
  7 19  1  0  0  0  0
  9 20  1  0  0  0  0
M  END
