  ALLYLAMINE.mol	107-11-9
  NIST    06201412103D 1   1.00000  -173.24677
Copyright by the U.S. Sec. Commerce on behalf of U.S.A. All rights reserved.
 11 10  0  0  0  0  0  0  0  0999 V2000
    0.0359    0.0906   -0.2533 C    0  0  0  0  0  0  0  0  0  0  0  0
    1.1445    0.5901    0.2934 C    0  0  0  0  0  0  0  0  0  0  0  0
    2.5022   -0.0524    0.2168 C    0  0  0  0  0  0  0  0  0  0  0  0
    3.4878    0.9081   -0.3003 N    0  0  0  0  0  0  0  0  0  0  0  0
   -0.9246    0.5912   -0.1639 H    0  0  0  0  0  0  0  0  0  0  0  0
    0.0447   -0.8460   -0.8081 H    0  0  0  0  0  0  0  0  0  0  0  0
    1.1128    1.5367    0.8326 H    0  0  0  0  0  0  0  0  0  0  0  0
    2.8272   -0.3289    1.2304 H    0  0  0  0  0  0  0  0  0  0  0  0
    2.4291   -0.9928   -0.3588 H    0  0  0  0  0  0  0  0  0  0  0  0
    4.4162    0.4887   -0.2922 H    0  0  0  0  0  0  0  0  0  0  0  0
    3.2743    1.1171   -1.2746 H    0  0  0  0  0  0  0  0  0  0  0  0
  1  2  2  0
  2  3  1  0
  3  4  1  0
  1  5  1  0
  1  6  1  0
  2  7  1  0
  3  8  1  0
  3  9  1  0
  4 10  1  0
  4 11  1  0
M  END
