
 OpenBabel11181909333D

 10  9  0  0  0  0  0  0  0  0999 V2000
    0.0670   -0.7447    1.1563 C   0  0  0  0  0  0  0  0  0  0  0  0
    0.3916   -0.2123    2.5203 C   0  0  0  0  0  0  0  0  0  0  0  0
    1.2336    0.8129    2.6724 C   0  0  0  0  0  0  0  0  0  0  0  0
   -0.8326   -1.8107    1.2737 O   0  0  0  0  0  0  0  0  0  0  0  0
    1.0066   -1.0972    0.6751 H   0  0  0  0  0  0  0  0  0  0  0  0
   -0.3921    0.0697    0.5525 H   0  0  0  0  0  0  0  0  0  0  0  0
   -0.0617   -0.6633    3.3987 H   0  0  0  0  0  0  0  0  0  0  0  0
    1.6999    1.2812    1.8106 H   0  0  0  0  0  0  0  0  0  0  0  0
    1.4590    1.1874    3.6657 H   0  0  0  0  0  0  0  0  0  0  0  0
   -1.0115   -2.1223    0.3486 H   0  0  0  0  0  0  0  0  0  0  0  0
  1  2  1  0  0  0  0
  1  4  1  0  0  0  0
  1  5  1  0  0  0  0
  1  6  1  0  0  0  0
  2  3  2  0  0  0  0
  2  7  1  0  0  0  0
  3  8  1  0  0  0  0
  3  9  1  0  0  0  0
  4 10  1  0  0  0  0
M  END
