
 OpenBabel10011916243D

 20 20  0  0  0  0  0  0  0  0999 V2000
    6.2833    3.2652    5.0647 C   0  0  0  0  0  0  0  0  0  0  0  0
    5.2852    2.7192    4.1935 C   0  0  0  0  0  0  0  0  0  0  0  0
    6.4255    4.5839    4.8395 O   0  0  0  0  0  0  0  0  0  0  0  0
    6.9267    2.6435    5.8943 O   0  0  0  0  0  0  0  0  0  0  0  0
    4.8385    3.7155    3.4586 C   0  0  0  0  0  0  0  0  0  0  0  0
    4.8719    1.4369    4.1210 O   0  0  0  0  0  0  0  0  0  0  0  0
    5.5504    5.0058    3.8359 C   0  0  1  0  0  0  0  0  0  0  0  0
    3.8887    3.5912    2.5085 O   0  0  0  0  0  0  0  0  0  0  0  0
    4.5761    6.0811    4.3622 C   0  0  2  0  0  0  0  0  0  0  0  0
    5.9847    7.9031    3.6620 O   0  0  0  0  0  0  0  0  0  0  0  0
    5.3143    7.3624    4.7673 C   0  0  0  0  0  0  0  0  0  0  0  0
    3.8734    5.5978    5.4798 O   0  0  0  0  0  0  0  0  0  0  0  0
    5.2526    0.7602    4.6977 H   0  0  0  0  0  0  0  0  0  0  0  0
    6.1205    5.3870    2.9612 H   0  0  0  0  0  0  0  0  0  0  0  0
    3.6023    4.3574    1.9929 H   0  0  0  0  0  0  0  0  0  0  0  0
    3.8610    6.3601    3.5518 H   0  0  0  0  0  0  0  0  0  0  0  0
    6.4354    8.7247    3.9884 H   0  0  0  0  0  0  0  0  0  0  0  0
    6.0418    7.1331    5.5782 H   0  0  0  0  0  0  0  0  0  0  0  0
    4.5662    8.0979    5.1399 H   0  0  0  0  0  0  0  0  0  0  0  0
    3.0660    5.1312    5.1390 H   0  0  0  0  0  0  0  0  0  0  0  0
  1  4  2  0  0  0  0
  1  3  1  0  0  0  0
  2  6  1  0  0  0  0
  2  1  1  0  0  0  0
  3  7  1  0  0  0  0
  5  8  1  0  0  0  0
  5  2  2  0  0  0  0
  5  7  1  0  0  0  0
  6 13  1  0  0  0  0
  7  9  1  0  0  0  0
  7 14  1  6  0  0  0
  8 15  1  0  0  0  0
  9 11  1  0  0  0  0
  9 12  1  0  0  0  0
  9 16  1  6  0  0  0
 10 11  1  0  0  0  0
 10 17  1  0  0  0  0
 11 18  1  0  0  0  0
 11 19  1  0  0  0  0
 12 20  1  0  0  0  0
M  END
