
 OpenBabel08211711013D

 16 15  0  0  0  0  0  0  0  0999 V2000
    1.7967    1.5126   -0.4300 C   0  0  0  0  0  0  0  0  0  0  0  0
    2.9907    0.9847    0.4090 C   0  0  2  0  0  0  0  0  0  0  0  0
    4.2387    1.8129    0.2008 C   0  0  0  0  0  0  0  0  0  0  0  0
    3.3088   -0.4113    0.1008 N   0  0  0  0  0  0  0  0  0  0  0  0
    0.5031    0.7734   -0.1782 C   0  0  0  0  0  0  0  0  0  0  0  0
    4.2502    2.7477   -0.5881 O   0  0  0  0  0  0  0  0  0  0  0  0
    5.3542    1.5133    0.9001 O   0  0  0  0  0  0  0  0  0  0  0  0
    0.4003   -0.4035   -0.4836 O   0  0  0  0  0  0  0  0  0  0  0  0
   -0.5633    1.4127    0.3500 O   0  0  0  0  0  0  0  0  0  0  0  0
    2.0344    1.4605   -1.5149 H   0  0  0  0  0  0  0  0  0  0  0  0
    1.6448    2.5822   -0.1663 H   0  0  0  0  0  0  0  0  0  0  0  0
    2.5572   -1.0507    0.4417 H   0  0  0  0  0  0  0  0  0  0  0  0
    3.4437   -0.5373   -0.9292 H   0  0  0  0  0  0  0  0  0  0  0  0
    6.1671    2.0267    0.7901 H   0  0  0  0  0  0  0  0  0  0  0  0
   -0.5251    2.3467    0.5983 H   0  0  0  0  0  0  0  0  0  0  0  0
    2.7257    1.0643    1.4866 H   0  0  0  0  0  0  0  0  0  0  0  0
  1  2  1  0  0  0  0
  1  5  1  0  0  0  0
  2  3  1  0  0  0  0
  2  4  1  0  0  0  0
  2 16  1  1  0  0  0
  3  6  2  0  0  0  0
  3  7  1  0  0  0  0
  5  8  2  0  0  0  0
  5  9  1  0  0  0  0
 10  1  1  0  0  0  0
 11  1  1  0  0  0  0
 12  4  1  0  0  0  0
 13  4  1  0  0  0  0
 14  7  1  0  0  0  0
 15  9  1  0  0  0  0
M  END
