  BENZOPHENONE.mol	119-61-9
  NIST    07011513593D 1   1.00000  -576.63225
Copyright by the U.S. Sec. Commerce on behalf of U.S.A. All rights reserved.
 24 25  0  0  0  0  0  0  0  0999 V2000
    2.3331    1.5318    1.4801 O    0  0  0  0  0  0  0  0  0  0  0  0
    3.0952    1.7702    2.4109 C    0  0  0  0  0  0  0  0  0  0  0  0
    2.6508    1.5078    3.8204 C    0  0  0  0  0  0  0  0  0  0  0  0
    4.4624    2.3218    2.1287 C    0  0  0  0  0  0  0  0  0  0  0  0
    1.2725    1.5414    4.0871 C    0  0  0  0  0  0  0  0  0  0  0  0
    3.5367    1.1540    4.8498 C    0  0  0  0  0  0  0  0  0  0  0  0
    5.1473    3.1646    3.0177 C    0  0  0  0  0  0  0  0  0  0  0  0
    5.0347    2.0395    0.8777 C    0  0  0  0  0  0  0  0  0  0  0  0
    0.7928    1.2604    5.3626 C    0  0  0  0  0  0  0  0  0  0  0  0
    3.0524    0.8531    6.1235 C    0  0  0  0  0  0  0  0  0  0  0  0
    6.3858    3.7025    2.6655 C    0  0  0  0  0  0  0  0  0  0  0  0
    6.2787    2.5607    0.5359 C    0  0  0  0  0  0  0  0  0  0  0  0
    1.6829    0.9153    6.3844 C    0  0  0  0  0  0  0  0  0  0  0  0
    6.9574    3.3944    1.4302 C    0  0  0  0  0  0  0  0  0  0  0  0
    0.5955    1.7888    3.2758 H    0  0  0  0  0  0  0  0  0  0  0  0
    4.6013    1.0876    4.6496 H    0  0  0  0  0  0  0  0  0  0  0  0
    4.7011    3.4224    3.9728 H    0  0  0  0  0  0  0  0  0  0  0  0
    4.4827    1.4092    0.1880 H    0  0  0  0  0  0  0  0  0  0  0  0
   -0.2746    1.3029    5.5618 H    0  0  0  0  0  0  0  0  0  0  0  0
    3.7451    0.5672    6.9104 H    0  0  0  0  0  0  0  0  0  0  0  0
    6.9020    4.3647    3.3554 H    0  0  0  0  0  0  0  0  0  0  0  0
    6.7187    2.3245   -0.4292 H    0  0  0  0  0  0  0  0  0  0  0  0
    1.3080    0.6891    7.3791 H    0  0  0  0  0  0  0  0  0  0  0  0
    7.9260    3.8074    1.1610 H    0  0  0  0  0  0  0  0  0  0  0  0
  1  2  2  0  0  0  0
  2  3  1  0  0  0  0
  2  4  1  0  0  0  0
  3  6  1  0  0  0  0
  4  7  2  0  0  0  0
  5  3  2  0  0  0  0
  5 15  1  0  0  0  0
  6 10  2  0  0  0  0
  6 16  1  0  0  0  0
  7 11  1  0  0  0  0
  7 17  1  0  0  0  0
  8  4  1  0  0  0  0
  8 18  1  0  0  0  0
  9  5  1  0  0  0  0
  9 19  1  0  0  0  0
 10 13  1  0  0  0  0
 10 20  1  0  0  0  0
 11 14  2  0  0  0  0
 11 21  1  0  0  0  0
 12  8  2  0  0  0  0
 12 22  1  0  0  0  0
 13  9  2  0  0  0  0
 13 23  1  0  0  0  0
 14 12  1  0  0  0  0
 14 24  1  0  0  0  0
M  END
