  BENZYL DICHLORIDE.mol	98-87-3
  NIST    06171422023D 1   1.00000 -1190.74800
Copyright by the U.S. Sec. Commerce on behalf of U.S.A. All rights reserved.
 15 15  0  0  0  0  0  0  0  0999 V2000
    8.2908    3.4450    0.4356 Cl   0  0  0  0  0  0  0  0  0  0  0  0
    7.2397    2.9972   -0.9754 C    0  0  0  0  0  0  0  0  0  0  0  0
    8.2771    2.6920   -2.4337 Cl   0  0  0  0  0  0  0  0  0  0  0  0
    6.3436    1.8322   -0.6652 C    0  0  0  0  0  0  0  0  0  0  0  0
    6.8625    0.5730   -0.3366 C    0  0  0  0  0  0  0  0  0  0  0  0
    4.9586    2.0192   -0.7083 C    0  0  0  0  0  0  0  0  0  0  0  0
    6.0013   -0.4832   -0.0552 C    0  0  0  0  0  0  0  0  0  0  0  0
    4.0962    0.9578   -0.4256 C    0  0  0  0  0  0  0  0  0  0  0  0
    4.6161   -0.2936   -0.0989 C    0  0  0  0  0  0  0  0  0  0  0  0
    6.6654    3.8911   -1.2073 H    0  0  0  0  0  0  0  0  0  0  0  0
    7.9381    0.4270   -0.3032 H    0  0  0  0  0  0  0  0  0  0  0  0
    4.5512    2.9947   -0.9629 H    0  0  0  0  0  0  0  0  0  0  0  0
    6.4095   -1.4573    0.1990 H    0  0  0  0  0  0  0  0  0  0  0  0
    3.0215    1.1123   -0.4613 H    0  0  0  0  0  0  0  0  0  0  0  0
    3.9468   -1.1206    0.1214 H    0  0  0  0  0  0  0  0  0  0  0  0
  1  2  1  0
  2  3  1  0
  2  4  1  0
  4  5  1  0
  5  7  2  0
  7  9  1  0
  9  8  2  0
  8  6  1  0
  4  6  2  0
  2 10  1  0
  5 11  1  0
  6 12  1  0
  7 13  1  0
  8 14  1  0
  9 15  1  0
M  END
