  BENZOYL BROMIDE.mol	618-32-6
  NIST    07061516513D 1   1.00000 -2916.69463
Copyright by the U.S. Sec. Commerce on behalf of U.S.A. All rights reserved.
 14 14  0  0  0  0  0  0  0  0999 V2000
    6.3003    1.8699   -0.5968 C    0  0  0  0  0  0  0  0  0  0  0  0
    6.8327    0.5903   -0.3530 C    0  0  0  0  0  0  0  0  0  0  0  0
    4.9227    2.0551   -0.6290 C    0  0  0  0  0  0  0  0  0  0  0  0
    4.0669    0.9697   -0.4194 C    0  0  0  0  0  0  0  0  0  0  0  0
    4.5925   -0.3014   -0.1773 C    0  0  0  0  0  0  0  0  0  0  0  0
    5.9715   -0.4951   -0.1430 C    0  0  0  0  0  0  0  0  0  0  0  0
    8.3104    0.4906   -0.3382 C    0  0  0  0  0  0  0  0  0  0  0  0
    9.0522   -1.3473    0.0162 Br   0  0  0  0  0  0  0  0  0  0  0  0
    9.0830    1.3810   -0.5132 O    0  0  0  0  0  0  0  0  0  0  0  0
    6.9794    2.7003   -0.7574 H    0  0  0  0  0  0  0  0  0  0  0  0
    4.5147    3.0440   -0.8171 H    0  0  0  0  0  0  0  0  0  0  0  0
    2.9904    1.1152   -0.4449 H    0  0  0  0  0  0  0  0  0  0  0  0
    3.9276   -1.1445   -0.0145 H    0  0  0  0  0  0  0  0  0  0  0  0
    6.3860   -1.4783    0.0444 H    0  0  0  0  0  0  0  0  0  0  0  0
  1  2  1  0  0  0  0
  1  3  2  0  0  0  0
  1 10  1  0  0  0  0
  2  7  1  0  0  0  0
  2  6  2  0  0  0  0
  3 11  1  0  0  0  0
  4  3  1  0  0  0  0
  4 12  1  0  0  0  0
  5  4  2  0  0  0  0
  5 13  1  0  0  0  0
  6  5  1  0  0  0  0
  6 14  1  0  0  0  0
  7  8  1  0  0  0  0
  7  9  2  0  0  0  0
M  END
