  BENZALDEHYDE.mol	100-52-7
  NIST    07011510053D 1   1.00000  -345.57345
Copyright by the U.S. Sec. Commerce on behalf of U.S.A. All rights reserved.
 14 14  0  0  0  0  0  0  0  0999 V2000
    5.4844    0.4148    0.3564 O    0  0  0  0  0  0  0  0  0  0  0  0
    5.1105    1.5694    0.4362 C    0  0  0  0  0  0  0  0  0  0  0  0
    3.6983    2.0070    0.3665 C    0  0  0  0  0  0  0  0  0  0  0  0
    2.6732    1.0636    0.1968 C    0  0  0  0  0  0  0  0  0  0  0  0
    3.3846    3.3685    0.4704 C    0  0  0  0  0  0  0  0  0  0  0  0
    1.3488    1.4829    0.1322 C    0  0  0  0  0  0  0  0  0  0  0  0
    2.0569    3.7880    0.4055 C    0  0  0  0  0  0  0  0  0  0  0  0
    1.0406    2.8447    0.2365 C    0  0  0  0  0  0  0  0  0  0  0  0
    5.8446    2.3954    0.5723 H    0  0  0  0  0  0  0  0  0  0  0  0
    2.9422    0.0145    0.1188 H    0  0  0  0  0  0  0  0  0  0  0  0
    4.1849    4.0940    0.6018 H    0  0  0  0  0  0  0  0  0  0  0  0
    0.5528    0.7552    0.0008 H    0  0  0  0  0  0  0  0  0  0  0  0
    1.8131    4.8436    0.4861 H    0  0  0  0  0  0  0  0  0  0  0  0
    0.0048    3.1700    0.1856 H    0  0  0  0  0  0  0  0  0  0  0  0
  1  2  2  0  0  0  0
  2  3  1  0  0  0  0
  2  9  1  0  0  0  0
  3  4  2  0  0  0  0
  4  6  1  0  0  0  0
  4 10  1  0  0  0  0
  5  3  1  0  0  0  0
  5 11  1  0  0  0  0
  6  8  2  0  0  0  0
  6 12  1  0  0  0  0
  7  5  2  0  0  0  0
  7 13  1  0  0  0  0
  8  7  1  0  0  0  0
  8 14  1  0  0  0  0
M  END
