  BORON TRICHLORIDE.mol	10294-34-5
  NIST    06161409363D 1   1.00000 -1405.56264
Copyright by the U.S. Sec. Commerce on behalf of U.S.A. All rights reserved.
  4  3  0  0  0  0  0  0  0  0999 V2000
   33.9507   29.9710    0.0000 Cl   0  0  0  0  0  0  0  0  0  0  0  0
   32.4399   29.0823    0.0000 B    0  0  0  0  0  0  0  0  0  0  0  0
   32.4541   27.3297    0.0000 Cl   0  0  0  0  0  0  0  0  0  0  0  0
   30.9149   29.9463    0.0000 Cl   0  0  0  0  0  0  0  0  0  0  0  0
  1  2  1  0
  2  3  1  0
  2  4  1  0
M  END
