  BROMOTRIFLUOROETHYLENE.mol	598-73-2
  NIST    07061515583D 1   1.00000 -2947.37118
Copyright by the U.S. Sec. Commerce on behalf of U.S.A. All rights reserved.
  6  5  0  0  0  0  0  0  0  0999 V2000
    1.0994    0.0107    0.0481 C    0  0  0  0  0  0  0  0  0  0  0  0
    0.4542    0.8395    0.8633 C    0  0  0  0  0  0  0  0  0  0  0  0
    0.4837   -0.8235   -0.7720 F    0  0  0  0  0  0  0  0  0  0  0  0
    2.4146   -0.0710   -0.0322 F    0  0  0  0  0  0  0  0  0  0  0  0
   -0.8813    0.8611    0.8847 F    0  0  0  0  0  0  0  0  0  0  0  0
    1.3204    2.0262    2.0305 Br   0  0  0  0  0  0  0  0  0  0  0  0
  1  4  1  0  0  0  0
  1  3  1  0  0  0  0
  1  2  2  0  0  0  0
  2  6  1  0  0  0  0
  2  5  1  0  0  0  0
M  END
