  BROMOTRICHLOROMETHANE.mol	75-62-7
  NIST    06201314153D 1   1.00000 -3990.36404
Copyright by the U.S. Sec. Commerce on behalf of U.S.A. All rights reserved.
  5  4  0  0  0  0  0  0  0  0999 V2000
    0.9889    0.8450   -0.0115 C    0  0  0  0  0  0  0  0  0  0  0  0
    0.1149    2.4043    0.0003 Cl   0  0  0  0  0  0  0  0  0  0  0  0
    2.7527    1.1353    0.0002 Cl   0  0  0  0  0  0  0  0  0  0  0  0
    0.4953   -0.1811    1.5999 Br   0  0  0  0  0  0  0  0  0  0  0  0
    0.5365   -0.0955   -1.4624 Cl   0  0  0  0  0  0  0  0  0  0  0  0
  1  2  1  0
  1  3  1  0
  1  4  1  0
  1  5  1  0
M  END
