
 OpenBabel11181909483D

 13 12  0  0  0  0  0  0  0  0999 V2000
    1.9723    2.0451    2.6799 C   0  0  0  0  0  0  0  0  0  0  0  0
    0.4761    2.3290    2.8130 C   0  0  0  0  0  0  0  0  0  0  0  0
    2.3643    1.5473    1.3099 C   0  0  0  0  0  0  0  0  0  0  0  0
    3.7990    1.2249    1.0241 C   0  0  0  0  0  0  0  0  0  0  0  0
    1.5260    1.4041    0.4311 O   0  0  0  0  0  0  0  0  0  0  0  0
    2.5323    2.9805    2.8942 H   0  0  0  0  0  0  0  0  0  0  0  0
    2.2576    1.2800    3.4334 H   0  0  0  0  0  0  0  0  0  0  0  0
   -0.1103    1.4034    2.6295 H   0  0  0  0  0  0  0  0  0  0  0  0
    0.2561    2.6901    3.8398 H   0  0  0  0  0  0  0  0  0  0  0  0
    0.1655    3.1113    2.0879 H   0  0  0  0  0  0  0  0  0  0  0  0
    3.9226    0.8731   -0.0225 H   0  0  0  0  0  0  0  0  0  0  0  0
    4.4219    2.1317    1.1721 H   0  0  0  0  0  0  0  0  0  0  0  0
    4.1465    0.4267    1.7128 H   0  0  0  0  0  0  0  0  0  0  0  0
  1  2  1  0  0  0  0
  1  3  1  0  0  0  0
  1  6  1  0  0  0  0
  1  7  1  0  0  0  0
  2  8  1  0  0  0  0
  2  9  1  0  0  0  0
  2 10  1  0  0  0  0
  3  4  1  0  0  0  0
  3  5  2  0  0  0  0
  4 11  1  0  0  0  0
  4 12  1  0  0  0  0
  4 13  1  0  0  0  0
M  END
