  BUTYL VINYL ETHER.mol	111-34-2
  NIST    06301519183D 1   1.00000  -311.05696
Copyright by the U.S. Sec. Commerce on behalf of U.S.A. All rights reserved.
 19 18  0  0  0  0  0  0  0  0999 V2000
    3.0271    1.3210    2.8690 C    0  0  0  0  0  0  0  0  0  0  0  0
    4.4765    1.0368    3.2597 C    0  0  0  0  0  0  0  0  0  0  0  0
    5.3580    1.0411    2.1357 O    0  0  0  0  0  0  0  0  0  0  0  0
    2.0686    1.2501    4.0651 C    0  0  0  0  0  0  0  0  0  0  0  0
    5.7688    2.2650    1.7002 C    0  0  0  0  0  0  0  0  0  0  0  0
    0.6122    1.5299    3.6801 C    0  0  0  0  0  0  0  0  0  0  0  0
    6.3420    2.4533    0.5115 C    0  0  0  0  0  0  0  0  0  0  0  0
    2.9681    2.3144    2.4028 H    0  0  0  0  0  0  0  0  0  0  0  0
    2.7259    0.5977    2.0999 H    0  0  0  0  0  0  0  0  0  0  0  0
    4.8270    1.7626    4.0102 H    0  0  0  0  0  0  0  0  0  0  0  0
    4.5691    0.0370    3.6962 H    0  0  0  0  0  0  0  0  0  0  0  0
    2.1393    0.2565    4.5301 H    0  0  0  0  0  0  0  0  0  0  0  0
    2.3878    1.9690    4.8332 H    0  0  0  0  0  0  0  0  0  0  0  0
    5.6279    3.0804    2.4129 H    0  0  0  0  0  0  0  0  0  0  0  0
   -0.0485    1.4734    4.5525 H    0  0  0  0  0  0  0  0  0  0  0  0
    0.2522    0.8045    2.9407 H    0  0  0  0  0  0  0  0  0  0  0  0
    0.5037    2.5297    3.2427 H    0  0  0  0  0  0  0  0  0  0  0  0
    6.4755    1.6364   -0.1899 H    0  0  0  0  0  0  0  0  0  0  0  0
    6.7013    3.4373    0.2340 H    0  0  0  0  0  0  0  0  0  0  0  0
  1  2  1  0  0  0  0
  1  4  1  0  0  0  0
  1  8  1  0  0  0  0
  1  9  1  0  0  0  0
  2  3  1  0  0  0  0
  2 10  1  0  0  0  0
  2 11  1  0  0  0  0
  3  5  1  0  0  0  0
  4  6  1  0  0  0  0
  4 12  1  0  0  0  0
  4 13  1  0  0  0  0
  5  7  2  0  0  0  0
  5 14  1  0  0  0  0
  6 15  1  0  0  0  0
  6 16  1  0  0  0  0
  6 17  1  0  0  0  0
  7 18  1  0  0  0  0
  7 19  1  0  0  0  0
M  END
