  CAFFEINE.mol	58-08-2
  NIST    06261320363D 1   1.00000  -680.37678
Copyright by the U.S. Sec. Commerce on behalf of U.S.A. All rights reserved.
 24 25  0  0  0  0  0  0  0  0999 V2000
   -0.8846   -0.2231    0.1979 C    0  0  0  0  0  0  0  0  0  0  0  0
   -0.0884   -1.4021    0.3658 C    0  0  0  0  0  0  0  0  0  0  0  0
   -0.3717    1.0586    0.2340 C    0  0  0  0  0  0  0  0  0  0  0  0
   -2.2444   -0.0622   -0.0217 N    0  0  0  0  0  0  0  0  0  0  0  0
    0.9669    1.2963    0.4377 N    0  0  0  0  0  0  0  0  0  0  0  0
   -1.3378    1.9977    0.0489 N    0  0  0  0  0  0  0  0  0  0  0  0
    1.2754   -1.0692    0.5695 N    0  0  0  0  0  0  0  0  0  0  0  0
   -0.4907   -2.5623    0.3437 O    0  0  0  0  0  0  0  0  0  0  0  0
    1.8393    0.2211    0.6140 C    0  0  0  0  0  0  0  0  0  0  0  0
    1.4804    2.6644    0.4720 C    0  0  0  0  0  0  0  0  0  0  0  0
    2.2282   -2.1680    0.7587 C    0  0  0  0  0  0  0  0  0  0  0  0
    3.0381    0.3744    0.7991 O    0  0  0  0  0  0  0  0  0  0  0  0
   -2.4462    1.2774   -0.1007 C    0  0  0  0  0  0  0  0  0  0  0  0
   -3.2370   -1.1221   -0.1431 C    0  0  0  0  0  0  0  0  0  0  0  0
    2.5542    2.6054    0.6387 H    0  0  0  0  0  0  0  0  0  0  0  0
    1.2695    3.1670   -0.4762 H    0  0  0  0  0  0  0  0  0  0  0  0
    1.0005    3.2244    1.2797 H    0  0  0  0  0  0  0  0  0  0  0  0
    2.9943   -2.1363   -0.0196 H    0  0  0  0  0  0  0  0  0  0  0  0
    2.7197   -2.0733    1.7298 H    0  0  0  0  0  0  0  0  0  0  0  0
    1.6643   -3.0971    0.7037 H    0  0  0  0  0  0  0  0  0  0  0  0
   -3.4307    1.6933   -0.2705 H    0  0  0  0  0  0  0  0  0  0  0  0
   -4.2150   -0.6623   -0.3000 H    0  0  0  0  0  0  0  0  0  0  0  0
   -2.9943   -1.7719   -0.9868 H    0  0  0  0  0  0  0  0  0  0  0  0
   -3.2544   -1.7279    0.7654 H    0  0  0  0  0  0  0  0  0  0  0  0
  2  8  2  0
  4 14  1  0
  5 10  1  0
  7 11  1  0
  9 12  2  0
  7  9  1  0
  9  5  1  0
  5  3  1  0
  3  6  1  0
  6 13  2  0
 13  4  1  0
  4  1  1  0
  3  1  2  0
  1  2  1  0
  7  2  1  0
 10 15  1  0
 10 16  1  0
 10 17  1  0
 11 18  1  0
 11 19  1  0
 11 20  1  0
 13 21  1  0
 14 22  1  0
 14 23  1  0
 14 24  1  0
M  END
