
 OpenBabel06251813193D

  9  8  0  0  0  0  0  0  0  0999 V2000
   -3.8702    1.5148    0.4939 C   0  0  0  0  0  0  0  0  0  0  0  0
   -2.7132    1.9582   -0.1657 O   0  0  0  0  0  0  0  0  0  0  0  0
   -3.9658    0.4212    0.3343 H   0  0  0  0  0  0  0  0  0  0  0  0
   -4.7815    1.9876    0.0682 H   0  0  0  0  0  0  0  0  0  0  0  0
   -3.7953    1.6792    1.5905 H   0  0  0  0  0  0  0  0  0  0  0  0
   -2.5675    3.6644    0.0861 S   0  0  0  0  0  0  0  0  0  0  0  0
   -1.1902    4.3592   -0.6662 O   0  0  0  0  0  0  0  0  0  0  0  0
   -3.8192    4.3902   -0.4323 O   0  0  0  0  0  0  0  0  0  0  0  0
   -2.5078    3.9797    1.5893 O   0  0  0  0  0  0  0  0  0  0  0  0
  1  2  1  0  0  0  0
  1  3  1  0  0  0  0
  1  4  1  0  0  0  0
  1  5  1  0  0  0  0
  2  6  1  0  0  0  0
  6  7  1  0  0  0  0
  8  6  2  0  0  0  0
  9  6  2  0  0  0  0
M  END
