  CHLOROPRENE.mol	126-99-8
  NIST    07091508243D 1   1.00000  -615.58796
Copyright by the U.S. Sec. Commerce on behalf of U.S.A. All rights reserved.
 10  9  0  0  0  0  0  0  0  0999 V2000
   -0.0837   -0.0078   -0.0067 C    0  0  0  0  0  0  0  0  0  0  0  0
    1.0647    0.6786   -0.0447 C    0  0  0  0  0  0  0  0  0  0  0  0
    2.3883    0.0618    0.0064 C    0  0  0  0  0  0  0  0  0  0  0  0
    1.0012    2.4426   -0.1643 Cl   0  0  0  0  0  0  0  0  0  0  0  0
    3.5718    0.6844   -0.0275 C    0  0  0  0  0  0  0  0  0  0  0  0
   -1.0520    0.4763   -0.0463 H    0  0  0  0  0  0  0  0  0  0  0  0
   -0.0597   -1.0912    0.0665 H    0  0  0  0  0  0  0  0  0  0  0  0
    2.3544   -1.0246    0.0797 H    0  0  0  0  0  0  0  0  0  0  0  0
    4.4968    0.1185    0.0173 H    0  0  0  0  0  0  0  0  0  0  0  0
    3.6536    1.7639   -0.1004 H    0  0  0  0  0  0  0  0  0  0  0  0
  1  2  2  0  0  0  0
  1  6  1  0  0  0  0
  1  7  1  0  0  0  0
  2  3  1  0  0  0  0
  2  4  1  0  0  0  0
  3  5  2  0  0  0  0
  3  8  1  0  0  0  0
  5  9  1  0  0  0  0
  5 10  1  0  0  0  0
M  END
