  CHLOROPENTAFLUOROETHANE.mol	76-15-3
  NIST    07061515553D 1   1.00000 -1035.59934
Copyright by the U.S. Sec. Commerce on behalf of U.S.A. All rights reserved.
  8  7  0  0  0  0  0  0  0  0999 V2000
   20.9851   18.9966   -0.0001 C    0  0  0  0  0  0  0  0  0  0  0  0
   22.5351   18.9868    0.0002 C    0  0  0  0  0  0  0  0  0  0  0  0
   23.1828   17.3248   -0.0001 Cl   0  0  0  0  0  0  0  0  0  0  0  0
   22.9647   19.6381    1.0913 F    0  0  0  0  0  0  0  0  0  0  0  0
   22.9651   19.6385   -1.0906 F    0  0  0  0  0  0  0  0  0  0  0  0
   20.5643   20.2682    0.0000 F    0  0  0  0  0  0  0  0  0  0  0  0
   20.5149   18.3838   -1.0905 F    0  0  0  0  0  0  0  0  0  0  0  0
   20.5145   18.3834    1.0898 F    0  0  0  0  0  0  0  0  0  0  0  0
  1  2  1  0  0  0  0
  1  6  1  0  0  0  0
  1  7  1  0  0  0  0
  1  8  1  0  0  0  0
  2  3  1  0  0  0  0
  2  4  1  0  0  0  0
  2  5  1  0  0  0  0
M  END
