  CIS,TRANS-1,3,5-TRIMETHYLCYCLOHEXANE.mol	1795-26-2
  NIST    07011506353D 1   1.00000  -353.81463
Copyright by the U.S. Sec. Commerce on behalf of U.S.A. All rights reserved.
 27 27  0  0  1  0  0  0  0  0999 V2000
    2.0496    1.2528    4.0338 C    0  0  0  0  0  0  0  0  0  0  0  0
    2.2544    1.1312    5.5478 C    0  0  0  0  0  0  0  0  0  0  0  0
    1.4028    2.5877    3.6335 C    0  0  0  0  0  0  0  0  0  0  0  0
    3.3799    1.0588    3.2615 C    0  0  0  0  0  0  0  0  0  0  0  0
    0.9982    2.6133    2.1387 C    0  0  0  0  0  0  0  0  0  0  0  0
    3.4019    1.7517    1.8754 C    0  0  0  0  0  0  0  0  0  0  0  0
    0.8732    4.0560    1.6303 C    0  0  0  0  0  0  0  0  0  0  0  0
    1.9862    1.7771    1.2782 C    0  0  0  0  0  0  0  0  0  0  0  0
    1.3582    0.4525    3.7285 H    0  0  0  0  0  0  0  0  0  0  0  0
    2.8961    1.9394    5.9224 H    0  0  0  0  0  0  0  0  0  0  0  0
    1.3005    1.1854    6.0865 H    0  0  0  0  0  0  0  0  0  0  0  0
    2.7335    0.1798    5.8099 H    0  0  0  0  0  0  0  0  0  0  0  0
    2.1141    3.4021    3.8409 H    0  0  0  0  0  0  0  0  0  0  0  0
    0.5218    2.7911    4.2567 H    0  0  0  0  0  0  0  0  0  0  0  0
    3.5683   -0.0171    3.1368 H    0  0  0  0  0  0  0  0  0  0  0  0
    4.2140    1.4439    3.8655 H    0  0  0  0  0  0  0  0  0  0  0  0
    0.0072    2.1450    2.0546 H    0  0  0  0  0  0  0  0  0  0  0  0
    0.2001    4.6450    2.2657 H    0  0  0  0  0  0  0  0  0  0  0  0
    1.8491    4.5591    1.6293 H    0  0  0  0  0  0  0  0  0  0  0  0
    0.4812    4.0866    0.6066 H    0  0  0  0  0  0  0  0  0  0  0  0
    2.0137    2.1728    0.2539 H    0  0  0  0  0  0  0  0  0  0  0  0
    1.6267    0.7415    1.1932 H    0  0  0  0  0  0  0  0  0  0  0  0
    4.4193    1.0954    0.9359 C    0  0  0  0  0  0  0  0  0  0  0  0
    3.7164    2.7958    2.0234 H    0  0  0  0  0  0  0  0  0  0  0  0
    5.4180    1.0654    1.3889 H    0  0  0  0  0  0  0  0  0  0  0  0
    4.1293    0.0618    0.7055 H    0  0  0  0  0  0  0  0  0  0  0  0
    4.4978    1.6395   -0.0131 H    0  0  0  0  0  0  0  0  0  0  0  0
  1  2  1  0  0  0  0
  1  3  1  0  0  0  0
  1  9  1  6  0  0  0
  2 10  1  0  0  0  0
  2 11  1  0  0  0  0
  2 12  1  0  0  0  0
  3 13  1  0  0  0  0
  3 14  1  0  0  0  0
  4  1  1  0  0  0  0
  4 15  1  0  0  0  0
  4 16  1  0  0  0  0
  5  3  1  0  0  0  0
  5  7  1  0  0  0  0
  5 17  1  6  0  0  0
  6  4  1  0  0  0  0
  6  8  1  0  0  0  0
  6 24  1  1  0  0  0
  6 23  1  0  0  0  0
  7 18  1  0  0  0  0
  7 19  1  0  0  0  0
  7 20  1  0  0  0  0
  8  5  1  0  0  0  0
  8 21  1  0  0  0  0
  8 22  1  0  0  0  0
 23 25  1  0  0  0  0
 23 26  1  0  0  0  0
 23 27  1  0  0  0  0
M  END
