  CIS,CIS-1,2,3-TRIMETHYLCYCLOHEXANE.mol	1839-88-9
  NIST    07011506103D 1   1.00000  -353.80405
Copyright by the U.S. Sec. Commerce on behalf of U.S.A. All rights reserved.
 27 27  0  0  1  0  0  0  0  0999 V2000
    4.1137    1.6125    1.9085 C    0  0  0  0  0  0  0  0  0  0  0  0
    3.5931    2.5950    0.8310 C    0  0  0  0  0  0  0  0  0  0  0  0
    2.3947    3.4298    1.3371 C    0  0  0  0  0  0  0  0  0  0  0  0
    3.7922    2.1157    3.3256 C    0  0  0  0  0  0  0  0  0  0  0  0
    2.2456    2.2027    3.5654 C    0  0  0  0  0  0  0  0  0  0  0  0
    4.5492    1.3239    4.3995 C    0  0  0  0  0  0  0  0  0  0  0  0
    1.4685    2.6180    2.2613 C    0  0  0  0  0  0  0  0  0  0  0  0
    1.6410    0.9579    4.2356 C    0  0  0  0  0  0  0  0  0  0  0  0
    3.6698    0.6170    1.7706 H    0  0  0  0  0  0  0  0  0  0  0  0
    5.1968    1.4730    1.7985 H    0  0  0  0  0  0  0  0  0  0  0  0
    4.3978    3.2767    0.5282 H    0  0  0  0  0  0  0  0  0  0  0  0
    3.3124    2.0398   -0.0720 H    0  0  0  0  0  0  0  0  0  0  0  0
    1.8260    3.8243    0.4852 H    0  0  0  0  0  0  0  0  0  0  0  0
    2.7629    4.3057    1.8874 H    0  0  0  0  0  0  0  0  0  0  0  0
    4.1717    3.1469    3.3811 H    0  0  0  0  0  0  0  0  0  0  0  0
    2.1043    3.0292    4.2772 H    0  0  0  0  0  0  0  0  0  0  0  0
    4.3269    1.6924    5.4085 H    0  0  0  0  0  0  0  0  0  0  0  0
    4.3035    0.2559    4.3727 H    0  0  0  0  0  0  0  0  0  0  0  0
    5.6311    1.4156    4.2454 H    0  0  0  0  0  0  0  0  0  0  0  0
    2.0798    0.7848    5.2231 H    0  0  0  0  0  0  0  0  0  0  0  0
    0.5614    1.0841    4.3788 H    0  0  0  0  0  0  0  0  0  0  0  0
    1.7895    0.0481    3.6426 H    0  0  0  0  0  0  0  0  0  0  0  0
    0.8039    1.4640    1.4845 C    0  0  0  0  0  0  0  0  0  0  0  0
    0.6499    3.2793    2.5796 H    0  0  0  0  0  0  0  0  0  0  0  0
    1.5222    0.7121    1.1413 H    0  0  0  0  0  0  0  0  0  0  0  0
    0.0501    0.9476    2.0865 H    0  0  0  0  0  0  0  0  0  0  0  0
    0.2967    1.8613    0.5966 H    0  0  0  0  0  0  0  0  0  0  0  0
  1  9  1  0  0  0  0
  1 10  1  0  0  0  0
  2  1  1  0  0  0  0
  2 11  1  0  0  0  0
  2 12  1  0  0  0  0
  3  2  1  0  0  0  0
  3 13  1  0  0  0  0
  3 14  1  0  0  0  0
  4  1  1  0  0  0  0
  4  5  1  0  0  0  0
  4  6  1  0  0  0  0
  4 15  1  1  0  0  0
  5  7  1  0  0  0  0
  5  8  1  0  0  0  0
  5 16  1  1  0  0  0
  6 17  1  0  0  0  0
  6 18  1  0  0  0  0
  6 19  1  0  0  0  0
  7  3  1  0  0  0  0
  7 24  1  1  0  0  0
  7 23  1  0  0  0  0
  8 20  1  0  0  0  0
  8 21  1  0  0  0  0
  8 22  1  0  0  0  0
 23 25  1  0  0  0  0
 23 26  1  0  0  0  0
 23 27  1  0  0  0  0
M  END
