  CIS,CIS-1,3,5-TRIMETHYLCYCLOHEXANE.mol	1795-27-3
  NIST    07011506303D 1   1.00000  -353.82579
Copyright by the U.S. Sec. Commerce on behalf of U.S.A. All rights reserved.
 27 27  0  0  1  0  0  0  0  0999 V2000
    2.1044    3.6213    2.7311 C    0  0  0  0  0  0  0  0  0  0  0  0
    0.8210    4.3810    2.3757 C    0  0  0  0  0  0  0  0  0  0  0  0
    3.3049    4.5732    2.8784 C    0  0  0  0  0  0  0  0  0  0  0  0
    2.4193    2.5215    1.7015 C    0  0  0  0  0  0  0  0  0  0  0  0
    4.6135    3.8382    3.2170 C    0  0  0  0  0  0  0  0  0  0  0  0
    3.7135    1.7545    2.0234 C    0  0  0  0  0  0  0  0  0  0  0  0
    5.7943    4.8094    3.3355 C    0  0  0  0  0  0  0  0  0  0  0  0
    4.8896    2.7349    2.1806 C    0  0  0  0  0  0  0  0  0  0  0  0
    4.0092    0.6788    0.9714 C    0  0  0  0  0  0  0  0  0  0  0  0
    1.9483    3.1300    3.7052 H    0  0  0  0  0  0  0  0  0  0  0  0
    0.5848    5.1394    3.1321 H    0  0  0  0  0  0  0  0  0  0  0  0
   -0.0372    3.7022    2.3017 H    0  0  0  0  0  0  0  0  0  0  0  0
    0.9230    4.8947    1.4109 H    0  0  0  0  0  0  0  0  0  0  0  0
    3.4397    5.1269    1.9349 H    0  0  0  0  0  0  0  0  0  0  0  0
    3.0909    5.3266    3.6496 H    0  0  0  0  0  0  0  0  0  0  0  0
    1.5759    1.8196    1.6367 H    0  0  0  0  0  0  0  0  0  0  0  0
    2.5155    2.9823    0.7049 H    0  0  0  0  0  0  0  0  0  0  0  0
    4.4772    3.3493    4.1952 H    0  0  0  0  0  0  0  0  0  0  0  0
    3.5690    1.2496    2.9924 H    0  0  0  0  0  0  0  0  0  0  0  0
    5.9752    5.3252    2.3834 H    0  0  0  0  0  0  0  0  0  0  0  0
    6.7174    4.2836    3.6085 H    0  0  0  0  0  0  0  0  0  0  0  0
    5.6069    5.5756    4.0977 H    0  0  0  0  0  0  0  0  0  0  0  0
    5.0959    3.2045    1.2050 H    0  0  0  0  0  0  0  0  0  0  0  0
    5.8000    2.1839    2.4558 H    0  0  0  0  0  0  0  0  0  0  0  0
    4.9150    0.1132    1.2217 H    0  0  0  0  0  0  0  0  0  0  0  0
    4.1613    1.1287   -0.0183 H    0  0  0  0  0  0  0  0  0  0  0  0
    3.1807   -0.0351    0.8876 H    0  0  0  0  0  0  0  0  0  0  0  0
  1  2  1  0  0  0  0
  1  3  1  0  0  0  0
  1 10  1  1  0  0  0
  2 11  1  0  0  0  0
  2 12  1  0  0  0  0
  2 13  1  0  0  0  0
  3  5  1  0  0  0  0
  3 14  1  0  0  0  0
  3 15  1  0  0  0  0
  4  1  1  0  0  0  0
  4 16  1  0  0  0  0
  4 17  1  0  0  0  0
  5  7  1  0  0  0  0
  5  8  1  0  0  0  0
  5 18  1  1  0  0  0
  6  4  1  0  0  0  0
  6  9  1  0  0  0  0
  6 19  1  1  0  0  0
  7 20  1  0  0  0  0
  7 21  1  0  0  0  0
  7 22  1  0  0  0  0
  8  6  1  0  0  0  0
  8 23  1  0  0  0  0
  8 24  1  0  0  0  0
  9 25  1  0  0  0  0
  9 26  1  0  0  0  0
  9 27  1  0  0  0  0
M  END
