  CIS-1,2-DIMETHYLCYCLOPENTANE.mol	1192-18-3
  NIST    07011510373D 1   1.00000  -275.18427
Copyright by the U.S. Sec. Commerce on behalf of U.S.A. All rights reserved.
 21 21  0  0  1  0  0  0  0  0999 V2000
    2.2364    2.9349    3.8231 C    0  0  0  0  0  0  0  0  0  0  0  0
    2.3206    1.5426    3.1795 C    0  0  0  0  0  0  0  0  0  0  0  0
    2.0663    1.5342    1.6482 C    0  0  0  0  0  0  0  0  0  0  0  0
    3.7433    0.9481    3.2627 C    0  0  0  0  0  0  0  0  0  0  0  0
    0.8463    2.3110    1.1504 C    0  0  0  0  0  0  0  0  0  0  0  0
    3.4129    2.0045    1.0472 C    0  0  0  0  0  0  0  0  0  0  0  0
    4.5091    1.5381    2.0473 C    0  0  0  0  0  0  0  0  0  0  0  0
    2.9243    3.6485    3.3531 H    0  0  0  0  0  0  0  0  0  0  0  0
    1.2266    3.3546    3.7539 H    0  0  0  0  0  0  0  0  0  0  0  0
    2.4978    2.8805    4.8866 H    0  0  0  0  0  0  0  0  0  0  0  0
    1.5970    0.8899    3.6868 H    0  0  0  0  0  0  0  0  0  0  0  0
    1.9287    0.4788    1.3670 H    0  0  0  0  0  0  0  0  0  0  0  0
    4.2370    1.1607    4.2181 H    0  0  0  0  0  0  0  0  0  0  0  0
    3.6843   -0.1438    3.1705 H    0  0  0  0  0  0  0  0  0  0  0  0
    0.7253    2.1947    0.0665 H    0  0  0  0  0  0  0  0  0  0  0  0
   -0.0771    1.9564    1.6251 H    0  0  0  0  0  0  0  0  0  0  0  0
    0.9382    3.3839    1.3560 H    0  0  0  0  0  0  0  0  0  0  0  0
    3.5658    1.6066    0.0378 H    0  0  0  0  0  0  0  0  0  0  0  0
    3.4174    3.0980    0.9534 H    0  0  0  0  0  0  0  0  0  0  0  0
    5.1393    2.3811    2.3515 H    0  0  0  0  0  0  0  0  0  0  0  0
    5.1807    0.7953    1.6038 H    0  0  0  0  0  0  0  0  0  0  0  0
  1  2  1  0  0  0  0
  1  8  1  0  0  0  0
  1  9  1  0  0  0  0
  1 10  1  0  0  0  0
  2  3  1  0  0  0  0
  2 11  1  1  0  0  0
  3  5  1  0  0  0  0
  3  6  1  0  0  0  0
  3 12  1  6  0  0  0
  4  2  1  0  0  0  0
  4 13  1  0  0  0  0
  4 14  1  0  0  0  0
  5 15  1  0  0  0  0
  5 16  1  0  0  0  0
  5 17  1  0  0  0  0
  6  7  1  0  0  0  0
  6 18  1  0  0  0  0
  6 19  1  0  0  0  0
  7  4  1  0  0  0  0
  7 20  1  0  0  0  0
  7 21  1  0  0  0  0
M  END
