  CIS-2-HEPTENE.mol	6443-92-1
  NIST    07011509383D 1   1.00000  -275.16575
Copyright by the U.S. Sec. Commerce on behalf of U.S.A. All rights reserved.
 21 20  0  0  0  0  0  0  0  0999 V2000
    0.6624    4.2770    2.2730 C    0  0  0  0  0  0  0  0  0  0  0  0
    1.7733    3.8082    1.3280 C    0  0  0  0  0  0  0  0  0  0  0  0
    2.6026    2.6505    1.8984 C    0  0  0  0  0  0  0  0  0  0  0  0
    3.7240    2.1784    0.9526 C    0  0  0  0  0  0  0  0  0  0  0  0
    4.4797    0.9944    1.4951 C    0  0  0  0  0  0  0  0  0  0  0  0
    5.7770    0.9147    1.8157 C    0  0  0  0  0  0  0  0  0  0  0  0
    6.8269    1.9850    1.7014 C    0  0  0  0  0  0  0  0  0  0  0  0
    1.0752    4.6244    3.2281 H    0  0  0  0  0  0  0  0  0  0  0  0
    0.0888    5.1033    1.8378 H    0  0  0  0  0  0  0  0  0  0  0  0
   -0.0399    3.4636    2.4936 H    0  0  0  0  0  0  0  0  0  0  0  0
    1.3331    3.4998    0.3688 H    0  0  0  0  0  0  0  0  0  0  0  0
    2.4390    4.6526    1.0985 H    0  0  0  0  0  0  0  0  0  0  0  0
    1.9379    1.8034    2.1238 H    0  0  0  0  0  0  0  0  0  0  0  0
    3.0460    2.9517    2.8577 H    0  0  0  0  0  0  0  0  0  0  0  0
    4.3993    3.0166    0.7442 H    0  0  0  0  0  0  0  0  0  0  0  0
    3.2715    1.9027   -0.0129 H    0  0  0  0  0  0  0  0  0  0  0  0
    3.8699    0.1029    1.6540 H    0  0  0  0  0  0  0  0  0  0  0  0
    6.1378   -0.0374    2.2073 H    0  0  0  0  0  0  0  0  0  0  0  0
    7.6392    1.6664    1.0339 H    0  0  0  0  0  0  0  0  0  0  0  0
    6.4321    2.9301    1.3187 H    0  0  0  0  0  0  0  0  0  0  0  0
    7.2873    2.1851    2.6786 H    0  0  0  0  0  0  0  0  0  0  0  0
  1  2  1  0  0  0  0
  1  8  1  0  0  0  0
  1  9  1  0  0  0  0
  1 10  1  0  0  0  0
  2  3  1  0  0  0  0
  2 11  1  0  0  0  0
  2 12  1  0  0  0  0
  3  4  1  0  0  0  0
  3 13  1  0  0  0  0
  3 14  1  0  0  0  0
  4  5  1  0  0  0  0
  4 15  1  0  0  0  0
  4 16  1  0  0  0  0
  5  6  2  0  0  0  0
  5 17  1  0  0  0  0
  6  7  1  0  0  0  0
  6 18  1  0  0  0  0
  7 19  1  0  0  0  0
  7 20  1  0  0  0  0
  7 21  1  0  0  0  0
M  END
