  CIS-3-METHYLCYCLOHEXANOL.mol	5454-79-5
  NIST    06151402093D 1   1.00000  -350.39853
Copyright by the U.S. Sec. Commerce on behalf of U.S.A. All rights reserved.
 22 22  0  0  0  0  0  0  0  0999 V2000
    2.3853    2.6833    0.0197 C    0  0  0  0  0  0  0  0  0  0  0  0
    0.8527    2.5650   -0.0046 C    0  0  0  0  0  0  0  0  0  0  0  0
    3.0479    1.2964    0.0658 C    0  0  0  0  0  0  0  0  0  0  0  0
    0.3125    1.7519    1.1844 C    0  0  0  0  0  0  0  0  0  0  0  0
    1.0220    0.3889    1.2950 C    0  0  0  0  0  0  0  0  0  0  0  0
    3.2106    0.8852    2.5895 C    0  0  0  0  0  0  0  0  0  0  0  0
    2.5690    0.4417    1.2617 C    0  0  0  0  0  0  0  0  0  0  0  0
    0.3514    2.4978    2.4064 O    0  0  0  0  0  0  0  0  0  0  0  0
    2.7320    3.2361   -0.8620 H    0  0  0  0  0  0  0  0  0  0  0  0
    2.7017    3.2834    0.8858 H    0  0  0  0  0  0  0  0  0  0  0  0
    0.3809    3.5547   -0.0021 H    0  0  0  0  0  0  0  0  0  0  0  0
    0.5501    2.0656   -0.9364 H    0  0  0  0  0  0  0  0  0  0  0  0
    4.1412    1.3961    0.0908 H    0  0  0  0  0  0  0  0  0  0  0  0
    2.8056    0.7659   -0.8665 H    0  0  0  0  0  0  0  0  0  0  0  0
   -0.7573    1.5693    1.0309 H    0  0  0  0  0  0  0  0  0  0  0  0
    0.6763   -0.1146    2.2062 H    0  0  0  0  0  0  0  0  0  0  0  0
    0.6850   -0.2254    0.4470 H    0  0  0  0  0  0  0  0  0  0  0  0
    2.8010    0.3209    3.4347 H    0  0  0  0  0  0  0  0  0  0  0  0
    4.2940    0.7168    2.5650 H    0  0  0  0  0  0  0  0  0  0  0  0
    3.0654    1.9496    2.8091 H    0  0  0  0  0  0  0  0  0  0  0  0
    2.9141   -0.5876    1.0894 H    0  0  0  0  0  0  0  0  0  0  0  0
    1.2638    2.7861    2.5541 H    0  0  0  0  0  0  0  0  0  0  0  0
  2  1  1  0
  1  3  1  0
  4  2  1  0
  3  7  1  0
  5  4  1  0
  4  8  1  0
  7  5  1  0
  7  6  1  0
  1  9  1  0
  1 10  1  0
  2 11  1  0
  2 12  1  0
  3 13  1  0
  3 14  1  0
  4 15  1  0
  5 16  1  0
  5 17  1  0
  6 18  1  0
  6 19  1  0
  6 20  1  0
  7 21  1  0
  8 22  1  0
M  END
