  CIS-DIFLUORODIAZINE.mol	13812-43-6
  NIST    07251211073D 1   1.00000  -309.00852
Copyright by the U.S. Sec. Commerce on behalf of U.S.A. All rights reserved.
  4  3  0  0  0  0  0  0  0  0999 V2000
   17.9301   29.0861    0.0000 N    0  0  0  0  0  0  0  0  0  0  0  0
   16.9790   28.3078    0.0000 N    0  0  0  0  0  0  0  0  0  0  0  0
   15.8511   29.1181    0.0000 F    0  0  0  0  0  0  0  0  0  0  0  0
   19.0580   28.2758    0.0000 F    0  0  0  0  0  0  0  0  0  0  0  0
  1  2  2  0
  1  4  1  0
  2  3  1  0
M  END
