  CIS-2-PHENYL-2-BUTENE.mol	768-00-3
  NIST    07011512263D 1   1.00000  -388.28061
Copyright by the U.S. Sec. Commerce on behalf of U.S.A. All rights reserved.
 22 22  0  0  0  0  0  0  0  0999 V2000
    5.2990    2.8215    3.5788 C    0  0  0  0  0  0  0  0  0  0  0  0
    4.2273    3.4433    3.0495 C    0  0  0  0  0  0  0  0  0  0  0  0
    4.1335    4.9441    2.8751 C    0  0  0  0  0  0  0  0  0  0  0  0
    3.0581    2.6464    2.5783 C    0  0  0  0  0  0  0  0  0  0  0  0
    6.5602    3.4268    4.1247 C    0  0  0  0  0  0  0  0  0  0  0  0
    2.2934    3.0605    1.4729 C    0  0  0  0  0  0  0  0  0  0  0  0
    2.6688    1.4619    3.2308 C    0  0  0  0  0  0  0  0  0  0  0  0
    1.2086    2.3091    1.0208 C    0  0  0  0  0  0  0  0  0  0  0  0
    1.5856    0.7099    2.7811 C    0  0  0  0  0  0  0  0  0  0  0  0
    0.8499    1.1276    1.6701 C    0  0  0  0  0  0  0  0  0  0  0  0
    5.2811    1.7325    3.6067 H    0  0  0  0  0  0  0  0  0  0  0  0
    4.9159    5.4749    3.4213 H    0  0  0  0  0  0  0  0  0  0  0  0
    4.2257    5.2330    1.8194 H    0  0  0  0  0  0  0  0  0  0  0  0
    3.1635    5.3188    3.2226 H    0  0  0  0  0  0  0  0  0  0  0  0
    7.4307    3.1134    3.5314 H    0  0  0  0  0  0  0  0  0  0  0  0
    6.5490    4.5194    4.1426 H    0  0  0  0  0  0  0  0  0  0  0  0
    6.7437    3.0768    5.1499 H    0  0  0  0  0  0  0  0  0  0  0  0
    2.5573    3.9730    0.9467 H    0  0  0  0  0  0  0  0  0  0  0  0
    3.2076    1.1433    4.1183 H    0  0  0  0  0  0  0  0  0  0  0  0
    0.6434    2.6498    0.1569 H    0  0  0  0  0  0  0  0  0  0  0  0
    1.3059   -0.1978    3.3100 H    0  0  0  0  0  0  0  0  0  0  0  0
    0.0013    0.5448    1.3220 H    0  0  0  0  0  0  0  0  0  0  0  0
  1  2  2  0  0  0  0
  1  5  1  0  0  0  0
  1 11  1  0  0  0  0
  2  3  1  0  0  0  0
  2  4  1  0  0  0  0
  3 12  1  0  0  0  0
  3 13  1  0  0  0  0
  3 14  1  0  0  0  0
  4  7  1  0  0  0  0
  5 15  1  0  0  0  0
  5 16  1  0  0  0  0
  5 17  1  0  0  0  0
  6  4  2  0  0  0  0
  6 18  1  0  0  0  0
  7  9  2  0  0  0  0
  7 19  1  0  0  0  0
  8  6  1  0  0  0  0
  8 20  1  0  0  0  0
  9 10  1  0  0  0  0
  9 21  1  0  0  0  0
 10  8  2  0  0  0  0
 10 22  1  0  0  0  0
M  END
