  CIS-1,2-DIMETHYLCYCLOPROPANE.mol	930-18-7
  NIST    07011508493D 1   1.00000  -196.52658
Copyright by the U.S. Sec. Commerce on behalf of U.S.A. All rights reserved.
 15 15  0  0  1  0  0  0  0  0999 V2000
    3.0353    2.0425    2.5074 C    0  0  0  0  0  0  0  0  0  0  0  0
    3.9443    0.8688    2.2031 C    0  0  0  0  0  0  0  0  0  0  0  0
    1.6332    2.1723    1.9441 C    0  0  0  0  0  0  0  0  0  0  0  0
    1.8357    1.8897    3.4161 C    0  0  0  0  0  0  0  0  0  0  0  0
    1.0107    1.1415    1.0238 C    0  0  0  0  0  0  0  0  0  0  0  0
    3.5703    2.9869    2.6047 H    0  0  0  0  0  0  0  0  0  0  0  0
    3.3910   -0.0741    2.1420 H    0  0  0  0  0  0  0  0  0  0  0  0
    4.7015    0.7513    2.9885 H    0  0  0  0  0  0  0  0  0  0  0  0
    4.4719    1.0064    1.2508 H    0  0  0  0  0  0  0  0  0  0  0  0
    1.3365    3.1939    1.7073 H    0  0  0  0  0  0  0  0  0  0  0  0
    1.6164    2.6695    4.1412 H    0  0  0  0  0  0  0  0  0  0  0  0
    1.6027    0.8858    3.7671 H    0  0  0  0  0  0  0  0  0  0  0  0
   -0.0842    1.2004    1.0609 H    0  0  0  0  0  0  0  0  0  0  0  0
    1.2900    0.1198    1.3016 H    0  0  0  0  0  0  0  0  0  0  0  0
    1.3168    1.2975   -0.0184 H    0  0  0  0  0  0  0  0  0  0  0  0
  1  2  1  0  0  0  0
  1  4  1  0  0  0  0
  1  6  1  1  0  0  0
  2  7  1  0  0  0  0
  2  8  1  0  0  0  0
  2  9  1  0  0  0  0
  3  1  1  0  0  0  0
  3  5  1  0  0  0  0
  3 10  1  6  0  0  0
  4  3  1  0  0  0  0
  4 11  1  0  0  0  0
  4 12  1  0  0  0  0
  5 13  1  0  0  0  0
  5 14  1  0  0  0  0
  5 15  1  0  0  0  0
M  END
