  CIS-3-HEXENE.mol	7642-09-3
  NIST    07011508403D 1   1.00000  -235.85146
Copyright by the U.S. Sec. Commerce on behalf of U.S.A. All rights reserved.
 18 17  0  0  0  0  0  0  0  0999 V2000
    3.1554    3.9445    1.9465 C    0  0  0  0  0  0  0  0  0  0  0  0
    2.0522    3.2774    1.5851 C    0  0  0  0  0  0  0  0  0  0  0  0
    1.9467    1.9016    0.9809 C    0  0  0  0  0  0  0  0  0  0  0  0
    4.5913    3.5002    1.8475 C    0  0  0  0  0  0  0  0  0  0  0  0
    1.1063    0.9454    1.8451 C    0  0  0  0  0  0  0  0  0  0  0  0
    5.2899    3.4647    3.2181 C    0  0  0  0  0  0  0  0  0  0  0  0
    3.0204    4.9371    2.3811 H    0  0  0  0  0  0  0  0  0  0  0  0
    1.0920    3.7711    1.7489 H    0  0  0  0  0  0  0  0  0  0  0  0
    2.9387    1.4681    0.8140 H    0  0  0  0  0  0  0  0  0  0  0  0
    1.4768    1.9825   -0.0111 H    0  0  0  0  0  0  0  0  0  0  0  0
    5.1365    4.1981    1.1941 H    0  0  0  0  0  0  0  0  0  0  0  0
    4.6661    2.5161    1.3725 H    0  0  0  0  0  0  0  0  0  0  0  0
    1.0031   -0.0341    1.3639 H    0  0  0  0  0  0  0  0  0  0  0  0
    1.5688    0.7963    2.8272 H    0  0  0  0  0  0  0  0  0  0  0  0
    0.0983    1.3447    2.0107 H    0  0  0  0  0  0  0  0  0  0  0  0
    6.3456    3.1880    3.1162 H    0  0  0  0  0  0  0  0  0  0  0  0
    4.8096    2.7390    3.8841 H    0  0  0  0  0  0  0  0  0  0  0  0
    5.2466    4.4443    3.7094 H    0  0  0  0  0  0  0  0  0  0  0  0
  1  2  2  0  0  0  0
  1  4  1  0  0  0  0
  1  7  1  0  0  0  0
  2  3  1  0  0  0  0
  2  8  1  0  0  0  0
  3  5  1  0  0  0  0
  3  9  1  0  0  0  0
  3 10  1  0  0  0  0
  4  6  1  0  0  0  0
  4 11  1  0  0  0  0
  4 12  1  0  0  0  0
  5 13  1  0  0  0  0
  5 14  1  0  0  0  0
  5 15  1  0  0  0  0
  6 16  1  0  0  0  0
  6 17  1  0  0  0  0
  6 18  1  0  0  0  0
M  END
