  CIS-2-HEXENE.mol	7688-21-3
  NIST    06301517203D 1   1.00000  -235.85063
Copyright by the U.S. Sec. Commerce on behalf of U.S.A. All rights reserved.
 18 17  0  0  0  0  0  0  0  0999 V2000
    3.2529    1.7499    1.2922 C    0  0  0  0  0  0  0  0  0  0  0  0
    2.0411    2.5602    1.6735 C    0  0  0  0  0  0  0  0  0  0  0  0
    1.4921    2.2455    3.0841 C    0  0  0  0  0  0  0  0  0  0  0  0
    4.5104    2.1812    1.1294 C    0  0  0  0  0  0  0  0  0  0  0  0
    0.9992    0.8054    3.2639 C    0  0  0  0  0  0  0  0  0  0  0  0
    5.0360    3.5825    1.2737 C    0  0  0  0  0  0  0  0  0  0  0  0
    3.0713    0.6856    1.1400 H    0  0  0  0  0  0  0  0  0  0  0  0
    2.2605    3.6320    1.6139 H    0  0  0  0  0  0  0  0  0  0  0  0
    1.2412    2.3695    0.9414 H    0  0  0  0  0  0  0  0  0  0  0  0
    2.2731    2.4610    3.8251 H    0  0  0  0  0  0  0  0  0  0  0  0
    0.6648    2.9372    3.2935 H    0  0  0  0  0  0  0  0  0  0  0  0
    5.2622    1.4398    0.8550 H    0  0  0  0  0  0  0  0  0  0  0  0
    0.5746    0.6576    4.2635 H    0  0  0  0  0  0  0  0  0  0  0  0
    0.2193    0.5591    2.5321 H    0  0  0  0  0  0  0  0  0  0  0  0
    1.8119    0.0809    3.1413 H    0  0  0  0  0  0  0  0  0  0  0  0
    5.8210    3.6264    2.0411 H    0  0  0  0  0  0  0  0  0  0  0  0
    5.4970    3.9257    0.3373 H    0  0  0  0  0  0  0  0  0  0  0  0
    4.2614    4.3033    1.5490 H    0  0  0  0  0  0  0  0  0  0  0  0
  1  2  1  0  0  0  0
  1  4  2  0  0  0  0
  1  7  1  0  0  0  0
  2  3  1  0  0  0  0
  2  8  1  0  0  0  0
  2  9  1  0  0  0  0
  3  5  1  0  0  0  0
  3 10  1  0  0  0  0
  3 11  1  0  0  0  0
  4  6  1  0  0  0  0
  4 12  1  0  0  0  0
  5 13  1  0  0  0  0
  5 14  1  0  0  0  0
  5 15  1  0  0  0  0
  6 16  1  0  0  0  0
  6 17  1  0  0  0  0
  6 18  1  0  0  0  0
M  END
