
 OpenBabel09301909533D

 21 20  0  0  0  0  0  0  0  0999 V2000
    0.1684   -0.0887   -0.1498 C   0  0  0  0  0  0  0  0  0  0  0  0
   -0.6586   -0.6670   -1.3264 C   0  0  0  0  0  0  0  0  0  0  0  0
    1.5773   -0.6216   -0.0988 C   0  0  0  0  0  0  0  0  0  0  0  0
   -0.0188   -0.3014   -2.5308 O   0  0  0  0  0  0  0  0  0  0  0  0
   -0.7275   -2.1820   -1.1814 C   0  0  0  0  0  0  0  0  0  0  0  0
   -2.0809   -0.0396   -1.2777 C   0  0  0  0  0  0  0  0  0  0  0  0
   -2.9886   -0.4952   -2.3917 C   0  0  0  0  0  0  0  0  0  0  0  0
   -1.2932   -2.7268   -0.0821 O   0  0  0  0  0  0  0  0  0  0  0  0
   -0.2694   -2.9093   -2.0513 O   0  0  0  0  0  0  0  0  0  0  0  0
    1.9954   -1.3088    0.9853 O   0  0  0  0  0  0  0  0  0  0  0  0
    2.3444   -0.4233   -1.0294 O   0  0  0  0  0  0  0  0  0  0  0  0
   -3.4754    0.4068   -3.2703 O   0  0  0  0  0  0  0  0  0  0  0  0
   -3.2978   -1.6732   -2.4928 O   0  0  0  0  0  0  0  0  0  0  0  0
   -0.3379   -0.3292    0.8116 H   0  0  0  0  0  0  0  0  0  0  0  0
    0.2208    1.0188   -0.2364 H   0  0  0  0  0  0  0  0  0  0  0  0
   -0.5243   -0.6921   -3.2905 H   0  0  0  0  0  0  0  0  0  0  0  0
   -1.9822    1.0667   -1.3416 H   0  0  0  0  0  0  0  0  0  0  0  0
   -2.5712   -0.2801   -0.3088 H   0  0  0  0  0  0  0  0  0  0  0  0
   -1.3455   -3.6864    0.0306 H   0  0  0  0  0  0  0  0  0  0  0  0
    2.8969   -1.6564    1.0402 H   0  0  0  0  0  0  0  0  0  0  0  0
   -4.0638    0.1373   -3.9898 H   0  0  0  0  0  0  0  0  0  0  0  0
  1  2  1  0  0  0  0
  1  3  1  0  0  0  0
  1 14  1  0  0  0  0
  1 15  1  0  0  0  0
  2  4  1  0  0  0  0
  2  5  1  0  0  0  0
  2  6  1  0  0  0  0
  3 10  1  0  0  0  0
  3 11  2  0  0  0  0
  4 16  1  0  0  0  0
  5  8  1  0  0  0  0
  5  9  2  0  0  0  0
  6  7  1  0  0  0  0
  6 17  1  0  0  0  0
  6 18  1  0  0  0  0
  7 12  1  0  0  0  0
  7 13  2  0  0  0  0
  8 19  1  0  0  0  0
 10 20  1  0  0  0  0
 12 21  1  0  0  0  0
M  END
