  CYANURIC CHLORIDE.mol	108-77-0
  NIST    06201411233D 1   1.00000 -1659.14934
Copyright by the U.S. Sec. Commerce on behalf of U.S.A. All rights reserved.
  9  9  0  0  0  0  0  0  0  0999 V2000
   -0.7499   -1.0091   -0.2508 C    0  0  0  0  0  0  0  0  0  0  0  0
    0.5560   -1.2462   -0.1606 N    0  0  0  0  0  0  0  0  0  0  0  0
   -1.3593    0.1647   -0.1079 N    0  0  0  0  0  0  0  0  0  0  0  0
   -1.7638   -2.3726   -0.5904 Cl   0  0  0  0  0  0  0  0  0  0  0  0
    1.2690   -0.1539    0.1010 C    0  0  0  0  0  0  0  0  0  0  0  0
   -0.5184    1.1627    0.1502 C    0  0  0  0  0  0  0  0  0  0  0  0
    0.8042    1.0812    0.2689 N    0  0  0  0  0  0  0  0  0  0  0  0
    2.9837   -0.3624    0.2378 Cl   0  0  0  0  0  0  0  0  0  0  0  0
   -1.2199    2.7340    0.3534 Cl   0  0  0  0  0  0  0  0  0  0  0  0
  1  4  1  0
  5  8  1  0
  6  9  1  0
  1  2  1  0
  2  5  2  0
  5  7  1  0
  7  6  2  0
  6  3  1  0
  1  3  2  0
M  END
