  CYCLOBUTANE.mol	287-23-0
  NIST    07021514253D 1   1.00000  -157.21315
Copyright by the U.S. Sec. Commerce on behalf of U.S.A. All rights reserved.
 12 12  0  0  0  0  0  0  0  0999 V2000
    1.8261    2.8340    1.0548 C    0  0  0  0  0  0  0  0  0  0  0  0
    0.6848    1.7987    0.8556 C    0  0  0  0  0  0  0  0  0  0  0  0
    1.7268    0.6676    1.0758 C    0  0  0  0  0  0  0  0  0  0  0  0
    2.8498    1.6988    0.7780 C    0  0  0  0  0  0  0  0  0  0  0  0
    1.8791    3.1815    2.0926 H    0  0  0  0  0  0  0  0  0  0  0  0
    1.8430    3.7086    0.3959 H    0  0  0  0  0  0  0  0  0  0  0  0
    0.3083    1.8059   -0.1734 H    0  0  0  0  0  0  0  0  0  0  0  0
   -0.1709    1.8447    1.5375 H    0  0  0  0  0  0  0  0  0  0  0  0
    1.6628   -0.2175    0.4342 H    0  0  0  0  0  0  0  0  0  0  0  0
    1.7489    0.3367    2.1202 H    0  0  0  0  0  0  0  0  0  0  0  0
    3.1511    1.6749   -0.2753 H    0  0  0  0  0  0  0  0  0  0  0  0
    3.7528    1.6632    1.3966 H    0  0  0  0  0  0  0  0  0  0  0  0
  1  4  1  0  0  0  0
  1  5  1  0  0  0  0
  1  6  1  0  0  0  0
  2  1  1  0  0  0  0
  2  7  1  0  0  0  0
  2  8  1  0  0  0  0
  3  2  1  0  0  0  0
  3  9  1  0  0  0  0
  3 10  1  0  0  0  0
  4  3  1  0  0  0  0
  4 11  1  0  0  0  0
  4 12  1  0  0  0  0
M  END
