  CYCLOOCTANONE.mol	502-49-8
  NIST    08031215123D 1   1.00000  -388.50418
Copyright by the U.S. Sec. Commerce on behalf of U.S.A. All rights reserved.
 23 23  0  0  0  0  0  0  0  0999 V2000
   -1.8094    0.4787   -1.1794 O    0  0  0  0  0  0  0  0  0  0  0  0
   -1.3412   -0.0293   -0.1734 C    0  0  0  0  0  0  0  0  0  0  0  0
   -0.8360   -1.4654   -0.2029 C    0  0  0  0  0  0  0  0  0  0  0  0
   -1.2121    0.7827    1.1073 C    0  0  0  0  0  0  0  0  0  0  0  0
    0.7099   -1.5933   -0.1814 C    0  0  0  0  0  0  0  0  0  0  0  0
    0.2427    1.1960    1.4522 C    0  0  0  0  0  0  0  0  0  0  0  0
    1.4577   -0.5830   -1.0842 C    0  0  0  0  0  0  0  0  0  0  0  0
    1.0838    1.6870    0.2496 C    0  0  0  0  0  0  0  0  0  0  0  0
    2.0449    0.6509   -0.3691 C    0  0  0  0  0  0  0  0  0  0  0  0
   -1.2236   -1.9030   -1.1281 H    0  0  0  0  0  0  0  0  0  0  0  0
   -1.2569   -2.0267    0.6423 H    0  0  0  0  0  0  0  0  0  0  0  0
   -1.6363    0.2200    1.9501 H    0  0  0  0  0  0  0  0  0  0  0  0
   -1.8190    1.6812    0.9591 H    0  0  0  0  0  0  0  0  0  0  0  0
    0.9436   -2.6155   -0.5021 H    0  0  0  0  0  0  0  0  0  0  0  0
    1.0819   -1.5153    0.8468 H    0  0  0  0  0  0  0  0  0  0  0  0
    0.1712    1.9948    2.2000 H    0  0  0  0  0  0  0  0  0  0  0  0
    0.7614    0.3709    1.9539 H    0  0  0  0  0  0  0  0  0  0  0  0
    0.8008   -0.2601   -1.9025 H    0  0  0  0  0  0  0  0  0  0  0  0
    2.2989   -1.1010   -1.5619 H    0  0  0  0  0  0  0  0  0  0  0  0
    1.7021    2.5307    0.5813 H    0  0  0  0  0  0  0  0  0  0  0  0
    0.4196    2.0892   -0.5268 H    0  0  0  0  0  0  0  0  0  0  0  0
    2.7291    0.3008    0.4189 H    0  0  0  0  0  0  0  0  0  0  0  0
    2.6742    1.1822   -1.0960 H    0  0  0  0  0  0  0  0  0  0  0  0
  1  2  2  0
  2  3  1  0
  3  5  1  0
  5  7  1  0
  7  9  1  0
  9  8  1  0
  8  6  1  0
  6  4  1  0
  2  4  1  0
  3 10  1  0
  3 11  1  0
  4 12  1  0
  4 13  1  0
  5 14  1  0
  5 15  1  0
  6 16  1  0
  6 17  1  0
  7 18  1  0
  7 19  1  0
  8 20  1  0
  8 21  1  0
  9 22  1  0
  9 23  1  0
M  END
