  CYCLOPENTYL CHLORIDE.mol	930-28-9
  NIST    06181409143D 1   1.00000  -656.15622
Copyright by the U.S. Sec. Commerce on behalf of U.S.A. All rights reserved.
 15 15  0  0  0  0  0  0  0  0999 V2000
    1.7681   -1.9013    0.0680 Cl   0  0  0  0  0  0  0  0  0  0  0  0
    3.3709   -1.2336    0.6222 C    0  0  0  0  0  0  0  0  0  0  0  0
    3.2671    0.1743    1.2118 C    0  0  0  0  0  0  0  0  0  0  0  0
    4.0119   -2.0570    1.7415 C    0  0  0  0  0  0  0  0  0  0  0  0
    4.6174    0.3436    1.9468 C    0  0  0  0  0  0  0  0  0  0  0  0
    5.0891   -1.1018    2.3119 C    0  0  0  0  0  0  0  0  0  0  0  0
    3.9992   -1.2356   -0.2731 H    0  0  0  0  0  0  0  0  0  0  0  0
    3.0806    0.9405    0.4536 H    0  0  0  0  0  0  0  0  0  0  0  0
    2.4325    0.1980    1.9222 H    0  0  0  0  0  0  0  0  0  0  0  0
    4.4145   -3.0110    1.3890 H    0  0  0  0  0  0  0  0  0  0  0  0
    3.2489   -2.2772    2.4970 H    0  0  0  0  0  0  0  0  0  0  0  0
    4.5133    0.9820    2.8293 H    0  0  0  0  0  0  0  0  0  0  0  0
    5.3504    0.8280    1.2923 H    0  0  0  0  0  0  0  0  0  0  0  0
    6.0655   -1.3088    1.8609 H    0  0  0  0  0  0  0  0  0  0  0  0
    5.2061   -1.2376    3.3914 H    0  0  0  0  0  0  0  0  0  0  0  0
  1  2  1  0
  2  3  1  0
  3  5  1  0
  5  6  1  0
  6  4  1  0
  2  4  1  0
  2  7  1  0
  3  8  1  0
  3  9  1  0
  4 10  1  0
  4 11  1  0
  5 12  1  0
  5 13  1  0
  6 14  1  0
  6 15  1  0
M  END
