  CYCLOOCTANOL.mol	696-71-9
  NIST    11071316233D 1   1.00000  -389.69974
Copyright by the U.S. Sec. Commerce on behalf of U.S.A. All rights reserved.
 25 25  0  0  0  0  0  0  0  0999 V2000
   -1.4439   -0.0161   -0.1769 C    0  0  0  0  0  0  0  0  0  0  0  0
   -0.8331   -1.4249   -0.2640 C    0  0  0  0  0  0  0  0  0  0  0  0
   -1.2052    0.7858    1.1114 C    0  0  0  0  0  0  0  0  0  0  0  0
    0.7026   -1.5462   -0.2077 C    0  0  0  0  0  0  0  0  0  0  0  0
    1.4824   -0.5660   -1.1028 C    0  0  0  0  0  0  0  0  0  0  0  0
    2.0593    0.6621   -0.3747 C    0  0  0  0  0  0  0  0  0  0  0  0
    2.5694   -1.3272   -1.6513 O    0  0  0  0  0  0  0  0  0  0  0  0
    1.1015    1.6888    0.2609 C    0  0  0  0  0  0  0  0  0  0  0  0
    0.2500    1.1788    1.4474 C    0  0  0  0  0  0  0  0  0  0  0  0
   -2.5300   -0.1185   -0.3073 H    0  0  0  0  0  0  0  0  0  0  0  0
   -1.1080    0.5775   -1.0377 H    0  0  0  0  0  0  0  0  0  0  0  0
   -1.2592   -2.0526    0.5313 H    0  0  0  0  0  0  0  0  0  0  0  0
   -1.1749   -1.8680   -1.2100 H    0  0  0  0  0  0  0  0  0  0  0  0
   -1.6273    0.2371    1.9655 H    0  0  0  0  0  0  0  0  0  0  0  0
   -1.7956    1.7096    1.0293 H    0  0  0  0  0  0  0  0  0  0  0  0
    1.0635   -1.4657    0.8238 H    0  0  0  0  0  0  0  0  0  0  0  0
    0.9742   -2.5534   -0.5427 H    0  0  0  0  0  0  0  0  0  0  0  0
    0.8305   -0.2275   -1.9266 H    0  0  0  0  0  0  0  0  0  0  0  0
    2.7433    0.2833    0.3979 H    0  0  0  0  0  0  0  0  0  0  0  0
    2.6888    1.2034   -1.0990 H    0  0  0  0  0  0  0  0  0  0  0  0
    3.1130   -0.7213   -2.1799 H    0  0  0  0  0  0  0  0  0  0  0  0
    0.4518    2.1262   -0.5102 H    0  0  0  0  0  0  0  0  0  0  0  0
    1.7296    2.5172    0.6123 H    0  0  0  0  0  0  0  0  0  0  0  0
    0.7677    0.3404    1.9277 H    0  0  0  0  0  0  0  0  0  0  0  0
    0.2028    1.9637    2.2131 H    0  0  0  0  0  0  0  0  0  0  0  0
  5  7  1  0
  1  2  1  0
  2  4  1  0
  4  5  1  0
  5  6  1  0
  6  8  1  0
  8  9  1  0
  9  3  1  0
  1  3  1  0
  1 10  1  0
  1 11  1  0
  2 12  1  0
  2 13  1  0
  3 14  1  0
  3 15  1  0
  4 16  1  0
  4 17  1  0
  5 18  1  0
  6 19  1  0
  6 20  1  0
  7 21  1  0
  8 22  1  0
  8 23  1  0
  9 24  1  0
  9 25  1  0
M  END
