  CYCLOHEXANONE OXIME.mol	100-64-1
  NIST    06221412183D 1   1.00000  -365.18840
Copyright by the U.S. Sec. Commerce on behalf of U.S.A. All rights reserved.
 19 19  0  0  0  0  0  0  0  0999 V2000
   -3.8963    1.0385    1.1329 C    0  0  0  0  0  0  0  0  0  0  0  0
   -5.0984    1.9472    1.2390 C    0  0  0  0  0  0  0  0  0  0  0  0
   -4.1245   -0.0598    0.0749 C    0  0  0  0  0  0  0  0  0  0  0  0
   -4.5642    0.5416   -1.2685 C    0  0  0  0  0  0  0  0  0  0  0  0
   -5.8203    1.4108   -1.1071 C    0  0  0  0  0  0  0  0  0  0  0  0
   -5.6221    2.5235   -0.0549 C    0  0  0  0  0  0  0  0  0  0  0  0
   -5.5823    2.1263    2.4120 N    0  0  0  0  0  0  0  0  0  0  0  0
   -6.7035    2.9926    2.4078 O    0  0  0  0  0  0  0  0  0  0  0  0
   -3.6744    0.6116    2.1157 H    0  0  0  0  0  0  0  0  0  0  0  0
   -3.0251    1.6419    0.8325 H    0  0  0  0  0  0  0  0  0  0  0  0
   -3.2079   -0.6498   -0.0487 H    0  0  0  0  0  0  0  0  0  0  0  0
   -4.8997   -0.7498    0.4364 H    0  0  0  0  0  0  0  0  0  0  0  0
   -4.7500   -0.2570   -1.9977 H    0  0  0  0  0  0  0  0  0  0  0  0
   -3.7467    1.1545   -1.6773 H    0  0  0  0  0  0  0  0  0  0  0  0
   -6.1008    1.8621   -2.0668 H    0  0  0  0  0  0  0  0  0  0  0  0
   -6.6628    0.7761   -0.7996 H    0  0  0  0  0  0  0  0  0  0  0  0
   -6.5491    3.0725    0.1186 H    0  0  0  0  0  0  0  0  0  0  0  0
   -4.8804    3.2436   -0.4338 H    0  0  0  0  0  0  0  0  0  0  0  0
   -6.9444    3.0001    3.3467 H    0  0  0  0  0  0  0  0  0  0  0  0
  2  7  2  0
  7  8  1  0
  1  2  1  0
  2  6  1  0
  6  5  1  0
  5  4  1  0
  4  3  1  0
  1  3  1  0
  1  9  1  0
  1 10  1  0
  3 11  1  0
  3 12  1  0
  4 13  1  0
  4 14  1  0
  5 15  1  0
  5 16  1  0
  6 17  1  0
  6 18  1  0
  8 19  1  0
M  END
