  DECAFLUOROBUTANE.mol	355-25-9
  NIST    08101209293D 1   1.00000 -1150.81393
Copyright by the U.S. Sec. Commerce on behalf of U.S.A. All rights reserved.
 14 13  0  0  0  0  0  0  0  0999 V2000
   51.9867   37.0498    0.0900 C    0  0  0  0  0  0  0  0  0  0  0  0
   50.6819   36.2105    0.0898 C    0  0  0  0  0  0  0  0  0  0  0  0
   50.9002   34.6829   -0.0724 C    0  0  0  0  0  0  0  0  0  0  0  0
   49.8891   36.6235   -0.9284 F    0  0  0  0  0  0  0  0  0  0  0  0
   50.0418   36.4178    1.2620 F    0  0  0  0  0  0  0  0  0  0  0  0
   51.7685   38.5774   -0.0727 C    0  0  0  0  0  0  0  0  0  0  0  0
   52.6262   36.8428    1.2625 F    0  0  0  0  0  0  0  0  0  0  0  0
   52.7800   36.6366   -0.9277 F    0  0  0  0  0  0  0  0  0  0  0  0
   49.7445   34.0505    0.1615 F    0  0  0  0  0  0  0  0  0  0  0  0
   51.8182   34.2483    0.8014 F    0  0  0  0  0  0  0  0  0  0  0  0
   51.3058   34.3970   -1.3140 F    0  0  0  0  0  0  0  0  0  0  0  0
   52.9241   39.2099    0.1617 F    0  0  0  0  0  0  0  0  0  0  0  0
   51.3635   38.8631   -1.3145 F    0  0  0  0  0  0  0  0  0  0  0  0
   50.8501   39.0123    0.8007 F    0  0  0  0  0  0  0  0  0  0  0  0
  1  2  1  0
  1  6  1  0
  1  7  1  0
  1  8  1  0
  2  3  1  0
  2  4  1  0
  2  5  1  0
  3  9  1  0
  3 10  1  0
  3 11  1  0
  6 12  1  0
  6 13  1  0
  6 14  1  0
M  END
