
 OpenBabel09231910223D

 26 27  0  0  0  0  0  0  0  0999 V2000
   -0.0699    0.5322   -1.6329 C   0  0  0  0  0  0  0  0  0  0  0  0
    0.0070   -0.7921   -1.4112 C   0  0  0  0  0  0  0  0  0  0  0  0
   -0.2365   -1.4172   -0.0573 C   0  0  0  0  0  0  0  0  0  0  0  0
   -0.4038    1.5539   -0.5807 C   0  0  0  0  0  0  0  0  0  0  0  0
   -0.7027    1.0412    0.8347 C   0  0  2  0  0  0  0  0  0  0  0  0
   -0.6056   -0.4824    1.1039 C   0  0  1  0  0  0  0  0  0  0  0  0
   -1.9760    0.2068    1.0233 C   0  0  0  0  0  0  0  0  0  0  0  0
   -2.9466   -0.0546   -0.1481 C   0  0  0  0  0  0  0  0  0  0  0  0
   -2.6730    0.4054    2.3824 C   0  0  0  0  0  0  0  0  0  0  0  0
   -0.6435    1.7793    1.6634 H   0  0  0  0  0  0  0  0  0  0  0  0
   -0.4865   -0.8852    2.1328 H   0  0  0  0  0  0  0  0  0  0  0  0
    0.3678   -1.6968   -2.5584 C   0  0  0  0  0  0  0  0  0  0  0  0
    0.1340    0.9074   -2.6327 H   0  0  0  0  0  0  0  0  0  0  0  0
   -1.0195   -2.2017   -0.1351 H   0  0  0  0  0  0  0  0  0  0  0  0
    0.7116   -1.9210    0.2267 H   0  0  0  0  0  0  0  0  0  0  0  0
   -1.2600    2.1756   -0.9179 H   0  0  0  0  0  0  0  0  0  0  0  0
    0.4821    2.2188   -0.5075 H   0  0  0  0  0  0  0  0  0  0  0  0
   -3.6448    0.8037   -0.2376 H   0  0  0  0  0  0  0  0  0  0  0  0
   -3.5406   -0.9663    0.0712 H   0  0  0  0  0  0  0  0  0  0  0  0
   -2.4795   -0.1992   -1.1343 H   0  0  0  0  0  0  0  0  0  0  0  0
   -3.2597   -0.5029    2.6342 H   0  0  0  0  0  0  0  0  0  0  0  0
   -3.3645    1.2719    2.3214 H   0  0  0  0  0  0  0  0  0  0  0  0
   -1.9550    0.5937    3.2101 H   0  0  0  0  0  0  0  0  0  0  0  0
   -0.3881   -1.6001   -3.3664 H   0  0  0  0  0  0  0  0  0  0  0  0
    0.4008   -2.7589   -2.2349 H   0  0  0  0  0  0  0  0  0  0  0  0
    1.3668   -1.4208   -2.9575 H   0  0  0  0  0  0  0  0  0  0  0  0
  1  4  1  0  0  0  0
  1 13  1  0  0  0  0
  2  1  2  0  0  0  0
  2 12  1  0  0  0  0
  3  2  1  0  0  0  0
  3 14  1  0  0  0  0
  3 15  1  0  0  0  0
  4  5  1  0  0  0  0
  4 16  1  0  0  0  0
  4 17  1  0  0  0  0
  5  7  1  0  0  0  0
  5 10  1  1  0  0  0
  6  3  1  0  0  0  0
  6  5  1  0  0  0  0
  6 11  1  1  0  0  0
  6  7  1  0  0  0  0
  7  8  1  0  0  0  0
  7  9  1  0  0  0  0
  8 18  1  0  0  0  0
  8 19  1  0  0  0  0
  8 20  1  0  0  0  0
  9 21  1  0  0  0  0
  9 22  1  0  0  0  0
  9 23  1  0  0  0  0
 12 24  1  0  0  0  0
 12 25  1  0  0  0  0
 12 26  1  0  0  0  0
M  END
