  DI-N-PROPYL SULFIDE.mol	111-47-7
  NIST    06241406153D 1   1.00000  -635.27002
Copyright by the U.S. Sec. Commerce on behalf of U.S.A. All rights reserved.
 21 20  0  0  0  0  0  0  0  0999 V2000
   50.9384   -0.0199    0.0000 S    0  0  0  0  0  0  0  0  0  0  0  0
   49.3838    0.9601   -0.0000 C    0  0  0  0  0  0  0  0  0  0  0  0
   50.2373   -1.7184    0.0000 C    0  0  0  0  0  0  0  0  0  0  0  0
   51.3575   -2.7631    0.0000 C    0  0  0  0  0  0  0  0  0  0  0  0
   50.8113   -4.1956    0.0001 C    0  0  0  0  0  0  0  0  0  0  0  0
   49.6922    2.4603   -0.0000 C    0  0  0  0  0  0  0  0  0  0  0  0
   48.4174    3.3120   -0.0001 C    0  0  0  0  0  0  0  0  0  0  0  0
   48.7948    0.6941   -0.8866 H    0  0  0  0  0  0  0  0  0  0  0  0
   48.7948    0.6941    0.8865 H    0  0  0  0  0  0  0  0  0  0  0  0
   49.6032   -1.8429    0.8867 H    0  0  0  0  0  0  0  0  0  0  0  0
   49.6032   -1.8429   -0.8866 H    0  0  0  0  0  0  0  0  0  0  0  0
   51.9953   -2.6094   -0.8795 H    0  0  0  0  0  0  0  0  0  0  0  0
   51.9953   -2.6094    0.8796 H    0  0  0  0  0  0  0  0  0  0  0  0
   51.6275   -4.9265    0.0001 H    0  0  0  0  0  0  0  0  0  0  0  0
   50.1929   -4.3863    0.8856 H    0  0  0  0  0  0  0  0  0  0  0  0
   50.1929   -4.3863   -0.8855 H    0  0  0  0  0  0  0  0  0  0  0  0
   50.3013    2.7044    0.8795 H    0  0  0  0  0  0  0  0  0  0  0  0
   50.3013    2.7044   -0.8796 H    0  0  0  0  0  0  0  0  0  0  0  0
   48.6598    4.3805   -0.0001 H    0  0  0  0  0  0  0  0  0  0  0  0
   47.8030    3.1094   -0.8856 H    0  0  0  0  0  0  0  0  0  0  0  0
   47.8030    3.1094    0.8855 H    0  0  0  0  0  0  0  0  0  0  0  0
  1  2  1  0
  1  3  1  0
  2  6  1  0
  3  4  1  0
  4  5  1  0
  6  7  1  0
  2  8  1  0
  2  9  1  0
  3 10  1  0
  3 11  1  0
  4 12  1  0
  4 13  1  0
  5 14  1  0
  5 15  1  0
  5 16  1  0
  6 17  1  0
  6 18  1  0
  7 19  1  0
  7 20  1  0
  7 21  1  0
M  END
