  DI-N-BUTYL SULFIDE.mol	544-40-1
  NIST    07201401263D 1   1.00000  -713.89748
Copyright by the U.S. Sec. Commerce on behalf of U.S.A. All rights reserved.
 27 26  0  0  0  0  0  0  0  0999 V2000
   67.9851    9.9259   -0.0000 S    0  0  0  0  0  0  0  0  0  0  0  0
   66.3741    9.0413   -0.0000 C    0  0  0  0  0  0  0  0  0  0  0  0
   69.1283    8.4873   -0.0000 C    0  0  0  0  0  0  0  0  0  0  0  0
   70.5862    8.9559   -0.0000 C    0  0  0  0  0  0  0  0  0  0  0  0
   71.5789    7.7841   -0.0000 C    0  0  0  0  0  0  0  0  0  0  0  0
   73.0407    8.2433   -0.0000 C    0  0  0  0  0  0  0  0  0  0  0  0
   65.2113   10.0376    0.0000 C    0  0  0  0  0  0  0  0  0  0  0  0
   63.8423    9.3423    0.0000 C    0  0  0  0  0  0  0  0  0  0  0  0
   62.6721   10.3312    0.0000 C    0  0  0  0  0  0  0  0  0  0  0  0
   66.3227    8.3969   -0.8864 H    0  0  0  0  0  0  0  0  0  0  0  0
   66.3227    8.3970    0.8864 H    0  0  0  0  0  0  0  0  0  0  0  0
   68.9273    7.8730    0.8865 H    0  0  0  0  0  0  0  0  0  0  0  0
   68.9273    7.8730   -0.8865 H    0  0  0  0  0  0  0  0  0  0  0  0
   70.7656    9.5879   -0.8801 H    0  0  0  0  0  0  0  0  0  0  0  0
   70.7656    9.5880    0.8800 H    0  0  0  0  0  0  0  0  0  0  0  0
   71.3932    7.1508    0.8788 H    0  0  0  0  0  0  0  0  0  0  0  0
   71.3932    7.1507   -0.8788 H    0  0  0  0  0  0  0  0  0  0  0  0
   73.7269    7.3889   -0.0000 H    0  0  0  0  0  0  0  0  0  0  0  0
   73.2646    8.8515   -0.8848 H    0  0  0  0  0  0  0  0  0  0  0  0
   73.2646    8.8515    0.8847 H    0  0  0  0  0  0  0  0  0  0  0  0
   65.2912   10.6900    0.8799 H    0  0  0  0  0  0  0  0  0  0  0  0
   65.2912   10.6900   -0.8799 H    0  0  0  0  0  0  0  0  0  0  0  0
   63.7678    8.6863   -0.8787 H    0  0  0  0  0  0  0  0  0  0  0  0
   63.7678    8.6863    0.8787 H    0  0  0  0  0  0  0  0  0  0  0  0
   61.7089    9.8086    0.0000 H    0  0  0  0  0  0  0  0  0  0  0  0
   62.7004   10.9789    0.8848 H    0  0  0  0  0  0  0  0  0  0  0  0
   62.7004   10.9789   -0.8847 H    0  0  0  0  0  0  0  0  0  0  0  0
  1  2  1  0
  1  3  1  0
  2  7  1  0
  3  4  1  0
  4  5  1  0
  5  6  1  0
  7  8  1  0
  8  9  1  0
  2 10  1  0
  2 11  1  0
  3 12  1  0
  3 13  1  0
  4 14  1  0
  4 15  1  0
  5 16  1  0
  5 17  1  0
  6 18  1  0
  6 19  1  0
  6 20  1  0
  7 21  1  0
  7 22  1  0
  8 23  1  0
  8 24  1  0
  9 25  1  0
  9 26  1  0
  9 27  1  0
M  END
