  DIALLYL MALEATE.mol	999-21-3
  NIST    08031421133D 1   1.00000    -0.18881
Copyright by the U.S. Sec. Commerce on behalf of U.S.A. All rights reserved.
 26 25  0  0  0  0  0  0  0  0999 V2000
    0.0898   49.0167   -0.0548 C    0  0  0  0  0  0  0  0  0  0  0  0
    1.1240   49.9664    0.4747 C    0  0  0  0  0  0  0  0  0  0  0  0
    0.2831   47.7340   -0.3820 C    0  0  0  0  0  0  0  0  0  0  0  0
    2.0140   50.3155   -0.4695 O    0  0  0  0  0  0  0  0  0  0  0  0
    1.0857   50.3965    1.6060 O    0  0  0  0  0  0  0  0  0  0  0  0
    3.0679   51.2293   -0.0539 C    0  0  0  0  0  0  0  0  0  0  0  0
    2.6836   52.6511   -0.3386 C    0  0  0  0  0  0  0  0  0  0  0  0
    2.5889   53.5931    0.5992 C    0  0  0  0  0  0  0  0  0  0  0  0
    1.6001   47.0556   -0.2845 C    0  0  0  0  0  0  0  0  0  0  0  0
    1.5344   45.8303   -0.8536 O    0  0  0  0  0  0  0  0  0  0  0  0
    2.5981   47.5125    0.2379 O    0  0  0  0  0  0  0  0  0  0  0  0
    2.7609   45.0499   -0.8398 C    0  0  0  0  0  0  0  0  0  0  0  0
    2.9540   44.3393    0.4669 C    0  0  0  0  0  0  0  0  0  0  0  0
    2.9958   43.0124    0.5834 C    0  0  0  0  0  0  0  0  0  0  0  0
   -0.9147   49.4319   -0.0978 H    0  0  0  0  0  0  0  0  0  0  0  0
   -0.5478   47.1229   -0.7210 H    0  0  0  0  0  0  0  0  0  0  0  0
    3.2789   51.0748    1.0056 H    0  0  0  0  0  0  0  0  0  0  0  0
    3.9309   50.9185   -0.6499 H    0  0  0  0  0  0  0  0  0  0  0  0
    2.4844   52.8906   -1.3828 H    0  0  0  0  0  0  0  0  0  0  0  0
    2.3272   54.6191    0.3546 H    0  0  0  0  0  0  0  0  0  0  0  0
    2.7672   53.3708    1.6487 H    0  0  0  0  0  0  0  0  0  0  0  0
    2.6452   44.3431   -1.6644 H    0  0  0  0  0  0  0  0  0  0  0  0
    3.5959   45.7263   -1.0465 H    0  0  0  0  0  0  0  0  0  0  0  0
    3.0836   44.9786    1.3378 H    0  0  0  0  0  0  0  0  0  0  0  0
    3.1653   42.5275    1.5409 H    0  0  0  0  0  0  0  0  0  0  0  0
    2.8702   42.3573   -0.2766 H    0  0  0  0  0  0  0  0  0  0  0  0
  1  2  1  0
  1  3  2  0
  2  4  1  0
  2  5  2  0
  3  9  1  0
  4  6  1  0
  6  7  1  0
  7  8  2  0
  9 10  1  0
  9 11  2  0
 10 12  1  0
 12 13  1  0
 13 14  2  0
  1 15  1  0
  3 16  1  0
  6 17  1  0
  6 18  1  0
  7 19  1  0
  8 20  1  0
  8 21  1  0
 12 22  1  0
 12 23  1  0
 13 24  1  0
 14 25  1  0
 14 26  1  0
M  END
