  DIBENZOFURAN.mol	132-64-9
  NIST    06301519473D 1   1.00000  -537.32909
Copyright by the U.S. Sec. Commerce on behalf of U.S.A. All rights reserved.
 21 23  0  0  0  0  0  0  0  0999 V2000
    1.0474    2.0365    0.0830 C    0  0  0  0  0  0  0  0  0  0  0  0
    2.0496    1.0642    0.0676 C    0  0  0  0  0  0  0  0  0  0  0  0
    3.3602    1.5202    0.0565 C    0  0  0  0  0  0  0  0  0  0  0  0
    1.3592    3.4063    0.0870 C    0  0  0  0  0  0  0  0  0  0  0  0
    2.6833    3.8423    0.0756 C    0  0  0  0  0  0  0  0  0  0  0  0
    3.7045    2.8855    0.0600 C    0  0  0  0  0  0  0  0  0  0  0  0
    5.1566    2.9165    0.0451 C    0  0  0  0  0  0  0  0  0  0  0  0
    6.1363    3.9158    0.0401 C    0  0  0  0  0  0  0  0  0  0  0  0
    5.5585    1.5670    0.0341 C    0  0  0  0  0  0  0  0  0  0  0  0
    7.4778    3.5367    0.0245 C    0  0  0  0  0  0  0  0  0  0  0  0
    7.8473    2.1814    0.0139 C    0  0  0  0  0  0  0  0  0  0  0  0
    6.8873    1.1673    0.0185 C    0  0  0  0  0  0  0  0  0  0  0  0
    4.4770    0.7151    0.0408 O    0  0  0  0  0  0  0  0  0  0  0  0
    0.0069    1.7245    0.0921 H    0  0  0  0  0  0  0  0  0  0  0  0
    1.8233    0.0032    0.0644 H    0  0  0  0  0  0  0  0  0  0  0  0
    0.5547    4.1360    0.0991 H    0  0  0  0  0  0  0  0  0  0  0  0
    2.9159    4.9036    0.0788 H    0  0  0  0  0  0  0  0  0  0  0  0
    5.8587    4.9662    0.0483 H    0  0  0  0  0  0  0  0  0  0  0  0
    8.2506    4.2999    0.0205 H    0  0  0  0  0  0  0  0  0  0  0  0
    8.9002    1.9139    0.0019 H    0  0  0  0  0  0  0  0  0  0  0  0
    7.1585    0.1168    0.0104 H    0  0  0  0  0  0  0  0  0  0  0  0
  1  4  1  0  0  0  0
  1 14  1  0  0  0  0
  2  1  2  0  0  0  0
  2 15  1  0  0  0  0
  3  2  1  0  0  0  0
  3  6  2  0  0  0  0
  4  5  2  0  0  0  0
  4 16  1  0  0  0  0
  5  6  1  0  0  0  0
  5 17  1  0  0  0  0
  6  7  1  0  0  0  0
  7  8  2  0  0  0  0
  7  9  1  0  0  0  0
  8 10  1  0  0  0  0
  8 18  1  0  0  0  0
  9 13  1  0  0  0  0
 10 11  2  0  0  0  0
 10 19  1  0  0  0  0
 11 12  1  0  0  0  0
 11 20  1  0  0  0  0
 12  9  2  0  0  0  0
 12 21  1  0  0  0  0
 13  3  1  0  0  0  0
M  END
