  DICHLOROACETIC ACID.mol	79-43-6
  NIST    06201410013D 1   1.00000 -1148.25036
Copyright by the U.S. Sec. Commerce on behalf of U.S.A. All rights reserved.
  8  7  0  0  0  0  0  0  0  0999 V2000
    0.4073    0.2253    0.2029 C    0  0  0  0  0  0  0  0  0  0  0  0
   -1.1096    0.2270   -0.0349 C    0  0  0  0  0  0  0  0  0  0  0  0
   -1.7717   -1.3358    0.5770 Cl   0  0  0  0  0  0  0  0  0  0  0  0
   -1.8784    1.6326    0.7392 Cl   0  0  0  0  0  0  0  0  0  0  0  0
    1.0144   -0.3453   -0.8582 O    0  0  0  0  0  0  0  0  0  0  0  0
    0.9719    0.6456    1.1773 O    0  0  0  0  0  0  0  0  0  0  0  0
   -1.3302    0.2626   -1.0993 H    0  0  0  0  0  0  0  0  0  0  0  0
    1.9689   -0.3736   -0.6547 H    0  0  0  0  0  0  0  0  0  0  0  0
  1  2  1  0  0  0  0
  1  5  1  0  0  0  0
  1  6  2  0  0  0  0
  2  3  1  0  0  0  0
  2  4  1  0  0  0  0
  2  7  1  0  0  0  0
  5  8  1  0  0  0  0
M  END
