  DICHLORODIISOPROPYL ETHER.mol	108-60-1
  NIST    07191209333D 1   1.00000 -1231.48470
Copyright by the U.S. Sec. Commerce on behalf of U.S.A. All rights reserved.
 21 20  0  0  0  0  0  0  0  0999 V2000
   51.9542   29.5840   -0.0054 O    0  0  0  0  0  0  0  0  0  0  0  0
   50.7094   28.9861    0.3529 C    0  0  0  0  0  0  0  0  0  0  0  0
   53.0455   28.7349   -0.3554 C    0  0  0  0  0  0  0  0  0  0  0  0
   50.5166   29.0303    1.8690 C    0  0  0  0  0  0  0  0  0  0  0  0
   49.5948   29.7814   -0.3310 C    0  0  0  0  0  0  0  0  0  0  0  0
   53.2486   28.7341   -1.8704 C    0  0  0  0  0  0  0  0  0  0  0  0
   54.3002   29.2774    0.3332 C    0  0  0  0  0  0  0  0  0  0  0  0
   51.6594   27.9324    2.7657 Cl   0  0  0  0  0  0  0  0  0  0  0  0
   51.8935   27.9143   -2.7684 Cl   0  0  0  0  0  0  0  0  0  0  0  0
   50.6777   27.9440    0.0135 H    0  0  0  0  0  0  0  0  0  0  0  0
   52.8541   27.7108   -0.0137 H    0  0  0  0  0  0  0  0  0  0  0  0
   50.6996   30.0388    2.2445 H    0  0  0  0  0  0  0  0  0  0  0  0
   49.5108   28.7097    2.1475 H    0  0  0  0  0  0  0  0  0  0  0  0
   48.6083   29.3691   -0.0922 H    0  0  0  0  0  0  0  0  0  0  0  0
   49.7370   29.7443   -1.4140 H    0  0  0  0  0  0  0  0  0  0  0  0
   49.6218   30.8302   -0.0148 H    0  0  0  0  0  0  0  0  0  0  0  0
   53.2927   29.7578   -2.2469 H    0  0  0  0  0  0  0  0  0  0  0  0
   54.1600   28.2000   -2.1462 H    0  0  0  0  0  0  0  0  0  0  0  0
   55.1795   28.6688    0.0954 H    0  0  0  0  0  0  0  0  0  0  0  0
   54.1499   29.2672    1.4158 H    0  0  0  0  0  0  0  0  0  0  0  0
   54.4935   30.3096    0.0208 H    0  0  0  0  0  0  0  0  0  0  0  0
  1  2  1  0
  1  3  1  0
  2  4  1  0
  2  5  1  0
  3  6  1  0
  3  7  1  0
  4  8  1  0
  6  9  1  0
  2 10  1  0
  3 11  1  0
  4 12  1  0
  4 13  1  0
  5 14  1  0
  5 15  1  0
  5 16  1  0
  6 17  1  0
  6 18  1  0
  7 19  1  0
  7 20  1  0
  7 21  1  0
M  END
