  DICYCLOHEXYLAMINE.mol	101-83-7
  NIST    06221303093D 1   1.00000  -525.89766
Copyright by the U.S. Sec. Commerce on behalf of U.S.A. All rights reserved.
 36 37  0  0  0  0  0  0  0  0999 V2000
   -1.0984   -0.1030    2.5272 C    0  0  0  0  0  0  0  0  0  0  0  0
   -0.8412    1.4082    2.6275 C    0  0  0  0  0  0  0  0  0  0  0  0
   -0.4395   -0.6968    1.2735 C    0  0  0  0  0  0  0  0  0  0  0  0
    3.4868    1.3701    0.0359 C    0  0  0  0  0  0  0  0  0  0  0  0
    3.1475    2.5134   -0.9454 C    0  0  0  0  0  0  0  0  0  0  0  0
    5.0000    1.3781    0.3300 C    0  0  0  0  0  0  0  0  0  0  0  0
    2.7486    1.5262    1.2997 N    0  0  0  0  0  0  0  0  0  0  0  0
    3.6360    3.8817   -0.4464 C    0  0  0  0  0  0  0  0  0  0  0  0
    5.4990    2.7400    0.8401 C    0  0  0  0  0  0  0  0  0  0  0  0
    5.1421    3.8645   -0.1439 C    0  0  0  0  0  0  0  0  0  0  0  0
    1.3289    1.1511    1.3058 C    0  0  0  0  0  0  0  0  0  0  0  0
    1.0617   -0.3688    1.2174 C    0  0  0  0  0  0  0  0  0  0  0  0
    0.6584    1.7345    2.5611 C    0  0  0  0  0  0  0  0  0  0  0  0
   -2.1769   -0.3070    2.5237 H    0  0  0  0  0  0  0  0  0  0  0  0
   -0.6892   -0.5999    3.4195 H    0  0  0  0  0  0  0  0  0  0  0  0
   -1.3582    1.9172    1.8002 H    0  0  0  0  0  0  0  0  0  0  0  0
   -1.2725    1.8081    3.5542 H    0  0  0  0  0  0  0  0  0  0  0  0
   -0.5897   -1.7836    1.2410 H    0  0  0  0  0  0  0  0  0  0  0  0
   -0.9325   -0.2893    0.3783 H    0  0  0  0  0  0  0  0  0  0  0  0
    3.2481    0.4128   -0.4631 H    0  0  0  0  0  0  0  0  0  0  0  0
    2.0673    2.5431   -1.1362 H    0  0  0  0  0  0  0  0  0  0  0  0
    3.6212    2.2808   -1.9104 H    0  0  0  0  0  0  0  0  0  0  0  0
    5.2407    0.5844    1.0522 H    0  0  0  0  0  0  0  0  0  0  0  0
    5.5304    1.1202   -0.5973 H    0  0  0  0  0  0  0  0  0  0  0  0
    3.2241    0.9950    2.0291 H    0  0  0  0  0  0  0  0  0  0  0  0
    3.0867    4.1430    0.4661 H    0  0  0  0  0  0  0  0  0  0  0  0
    3.4072    4.6534   -1.1929 H    0  0  0  0  0  0  0  0  0  0  0  0
    5.0404    2.9534    1.8137 H    0  0  0  0  0  0  0  0  0  0  0  0
    6.5845    2.7016    0.9991 H    0  0  0  0  0  0  0  0  0  0  0  0
    5.4612    4.8352    0.2572 H    0  0  0  0  0  0  0  0  0  0  0  0
    5.7000    3.7155   -1.0813 H    0  0  0  0  0  0  0  0  0  0  0  0
    0.8662    1.6284    0.4304 H    0  0  0  0  0  0  0  0  0  0  0  0
    1.5719   -0.8592    2.0620 H    0  0  0  0  0  0  0  0  0  0  0  0
    1.5035   -0.7822    0.3019 H    0  0  0  0  0  0  0  0  0  0  0  0
    0.8264    2.8173    2.5833 H    0  0  0  0  0  0  0  0  0  0  0  0
    1.1606    1.3224    3.4510 H    0  0  0  0  0  0  0  0  0  0  0  0
  4  5  1  0
  6  4  1  0
  4  7  1  0
  5  8  1  0
  9  6  1  0
  7 11  1  0
  8 10  1  0
 10  9  1  0
  1  2  1  0
  2 13  1  0
 13 11  1  0
 11 12  1  0
 12  3  1  0
  1  3  1  0
  1 14  1  0
  1 15  1  0
  2 16  1  0
  2 17  1  0
  3 18  1  0
  3 19  1  0
  4 20  1  0
  5 21  1  0
  5 22  1  0
  6 23  1  0
  6 24  1  0
  7 25  1  0
  8 26  1  0
  8 27  1  0
  9 28  1  0
  9 29  1  0
 10 30  1  0
 10 31  1  0
 11 32  1  0
 12 33  1  0
 12 34  1  0
 13 35  1  0
 13 36  1  0
M  END
