  DIETHYLENE GLYCOL.mol	111-46-6
  NIST    06301518133D 1   1.00000  -384.06967
Copyright by the U.S. Sec. Commerce on behalf of U.S.A. All rights reserved.
 17 16  0  0  0  0  0  0  0  0999 V2000
    0.0858    2.5005    0.1440 O    0  0  0  0  0  0  0  0  0  0  0  0
    0.7392    3.3468    1.0721 C    0  0  0  0  0  0  0  0  0  0  0  0
    2.2348    3.0690    1.1129 C    0  0  0  0  0  0  0  0  0  0  0  0
    2.3773    1.7011    1.4850 O    0  0  0  0  0  0  0  0  0  0  0  0
    3.6667    1.1441    1.2818 C    0  0  0  0  0  0  0  0  0  0  0  0
    5.8605    0.8333    2.1054 O    0  0  0  0  0  0  0  0  0  0  0  0
    4.6448    1.5106    2.3969 C    0  0  0  0  0  0  0  0  0  0  0  0
    0.3990    1.6046    0.3545 H    0  0  0  0  0  0  0  0  0  0  0  0
    0.5614    4.3789    0.7515 H    0  0  0  0  0  0  0  0  0  0  0  0
    0.3236    3.2301    2.0866 H    0  0  0  0  0  0  0  0  0  0  0  0
    2.6750    3.2345    0.1173 H    0  0  0  0  0  0  0  0  0  0  0  0
    2.7334    3.7397    1.8299 H    0  0  0  0  0  0  0  0  0  0  0  0
    3.5389    0.0572    1.2666 H    0  0  0  0  0  0  0  0  0  0  0  0
    4.0811    1.4518    0.3100 H    0  0  0  0  0  0  0  0  0  0  0  0
    6.4939    1.0346    2.8098 H    0  0  0  0  0  0  0  0  0  0  0  0
    4.2173    1.1980    3.3620 H    0  0  0  0  0  0  0  0  0  0  0  0
    4.7915    2.6019    2.4332 H    0  0  0  0  0  0  0  0  0  0  0  0
  1  2  1  0  0  0  0
  1  8  1  0  0  0  0
  2  3  1  0  0  0  0
  2  9  1  0  0  0  0
  2 10  1  0  0  0  0
  3  4  1  0  0  0  0
  3 11  1  0  0  0  0
  3 12  1  0  0  0  0
  4  5  1  0  0  0  0
  5  7  1  0  0  0  0
  5 13  1  0  0  0  0
  5 14  1  0  0  0  0
  6  7  1  0  0  0  0
  6 15  1  0  0  0  0
  7 16  1  0  0  0  0
  7 17  1  0  0  0  0
M  END
