  DIETHYLAMINE.mol	109-89-7
  NIST    06211413013D 1   1.00000  -213.79615
Copyright by the U.S. Sec. Commerce on behalf of U.S.A. All rights reserved.
 16 15  0  0  0  0  0  0  0  0999 V2000
   52.0390   10.0497    0.0128 C    0  0  0  0  0  0  0  0  0  0  0  0
   50.8201    9.2452   -0.0345 N    0  0  0  0  0  0  0  0  0  0  0  0
   51.0687    7.8061    0.0120 C    0  0  0  0  0  0  0  0  0  0  0  0
   51.7135   11.5416    0.0074 C    0  0  0  0  0  0  0  0  0  0  0  0
   49.7588    7.0214    0.0076 C    0  0  0  0  0  0  0  0  0  0  0  0
   52.6755    9.8103    0.8885 H    0  0  0  0  0  0  0  0  0  0  0  0
   52.6357    9.8004   -0.8752 H    0  0  0  0  0  0  0  0  0  0  0  0
   50.2294    9.5003    0.7578 H    0  0  0  0  0  0  0  0  0  0  0  0
   51.6583    7.5423   -0.8765 H    0  0  0  0  0  0  0  0  0  0  0  0
   51.6797    7.5057    0.8871 H    0  0  0  0  0  0  0  0  0  0  0  0
   52.6300   12.1419    0.0021 H    0  0  0  0  0  0  0  0  0  0  0  0
   51.1187   11.8018   -0.8742 H    0  0  0  0  0  0  0  0  0  0  0  0
   51.1379   11.8242    0.8984 H    0  0  0  0  0  0  0  0  0  0  0  0
   49.9493    5.9425    0.0029 H    0  0  0  0  0  0  0  0  0  0  0  0
   49.1593    7.2477    0.8989 H    0  0  0  0  0  0  0  0  0  0  0  0
   49.1613    7.2758   -0.8738 H    0  0  0  0  0  0  0  0  0  0  0  0
  1  2  1  0
  1  4  1  0
  2  3  1  0
  3  5  1  0
  1  6  1  0
  1  7  1  0
  2  8  1  0
  3  9  1  0
  3 10  1  0
  4 11  1  0
  4 12  1  0
  4 13  1  0
  5 14  1  0
  5 15  1  0
  5 16  1  0
M  END
