  DIFLUOROMETHANE.mol	75-10-5
  NIST    07011508023D 1   1.00000  -238.97320
Copyright by the U.S. Sec. Commerce on behalf of U.S.A. All rights reserved.
  5  4  0  0  0  0  0  0  0  0999 V2000
   -0.0404    0.0164    1.3271 F    0  0  0  0  0  0  0  0  0  0  0  0
    0.7501    0.9731    0.7687 C    0  0  0  0  0  0  0  0  0  0  0  0
    1.8243    0.3786    0.1829 F    0  0  0  0  0  0  0  0  0  0  0  0
    1.1049    1.6454    1.5581 H    0  0  0  0  0  0  0  0  0  0  0  0
    0.1763    1.5038    0.0005 H    0  0  0  0  0  0  0  0  0  0  0  0
  1  2  1  0  0  0  0
  2  3  1  0  0  0  0
  2  4  1  0  0  0  0
  2  5  1  0  0  0  0
M  END
