  DIFLUOROAMINE.mol	10405-27-3
  NIST    07091510153D 1   1.00000  -254.88107
Copyright by the U.S. Sec. Commerce on behalf of U.S.A. All rights reserved.
  4  3  0  0  0  0  0  0  0  0999 V2000
    0.1061   29.9587    0.1012 F    0  0  0  0  0  0  0  0  0  0  0  0
    1.2010   29.1609   -0.2667 N    0  0  0  0  0  0  0  0  0  0  0  0
    1.1962   28.4883    0.5134 H    0  0  0  0  0  0  0  0  0  0  0  0
    2.3129   29.9370    0.0972 F    0  0  0  0  0  0  0  0  0  0  0  0
  1  2  1  0  0  0  0
  2  3  1  0  0  0  0
  2  4  1  0  0  0  0
M  END
