  DIISOPROPYLAMINE.mol	108-18-9
  NIST    07201404493D 1   1.00000  -292.42308
Copyright by the U.S. Sec. Commerce on behalf of U.S.A. All rights reserved.
 22 21  0  0  0  0  0  0  0  0999 V2000
   35.1703   29.5044    0.4897 N    0  0  0  0  0  0  0  0  0  0  0  0
   33.8657   28.8774    0.7286 C    0  0  0  0  0  0  0  0  0  0  0  0
   36.0563   28.9054   -0.5235 C    0  0  0  0  0  0  0  0  0  0  0  0
   33.2255   29.5450    1.9511 C    0  0  0  0  0  0  0  0  0  0  0  0
   32.8931   28.8779   -0.4676 C    0  0  0  0  0  0  0  0  0  0  0  0
   36.0031   29.6168   -1.8869 C    0  0  0  0  0  0  0  0  0  0  0  0
   37.4951   28.8738    0.0142 C    0  0  0  0  0  0  0  0  0  0  0  0
   35.0479   30.4993    0.3055 H    0  0  0  0  0  0  0  0  0  0  0  0
   34.0759   27.8300    0.9895 H    0  0  0  0  0  0  0  0  0  0  0  0
   35.7256   27.8668   -0.6626 H    0  0  0  0  0  0  0  0  0  0  0  0
   32.2856   29.0521    2.2239 H    0  0  0  0  0  0  0  0  0  0  0  0
   33.9063   29.5094    2.8068 H    0  0  0  0  0  0  0  0  0  0  0  0
   32.9966   30.5993    1.7432 H    0  0  0  0  0  0  0  0  0  0  0  0
   31.9477   28.3865   -0.2055 H    0  0  0  0  0  0  0  0  0  0  0  0
   33.3119   28.3488   -1.3304 H    0  0  0  0  0  0  0  0  0  0  0  0
   32.6610   29.9051   -0.7791 H    0  0  0  0  0  0  0  0  0  0  0  0
   36.6723   29.1384   -2.6122 H    0  0  0  0  0  0  0  0  0  0  0  0
   34.9924   29.6183   -2.3071 H    0  0  0  0  0  0  0  0  0  0  0  0
   36.3268   30.6617   -1.7844 H    0  0  0  0  0  0  0  0  0  0  0  0
   38.1781   28.3847   -0.6918 H    0  0  0  0  0  0  0  0  0  0  0  0
   37.5328   28.3396    0.9685 H    0  0  0  0  0  0  0  0  0  0  0  0
   37.8615   29.8933    0.1886 H    0  0  0  0  0  0  0  0  0  0  0  0
  1  2  1  0
  1  3  1  0
  2  4  1  0
  2  5  1  0
  3  6  1  0
  3  7  1  0
  1  8  1  0
  2  9  1  0
  3 10  1  0
  4 11  1  0
  4 12  1  0
  4 13  1  0
  5 14  1  0
  5 15  1  0
  5 16  1  0
  6 17  1  0
  6 18  1  0
  6 19  1  0
  7 20  1  0
  7 21  1  0
  7 22  1  0
M  END
