
 OpenBabel12021909003D

 20 19  0  0  0  0  0  0  0  0999 V2000
    6.5050    5.0749    3.3796 C   0  0  0  0  0  0  0  0  0  0  0  0
    6.9186    4.2998    4.5972 C   0  0  0  0  0  0  0  0  0  0  0  0
    6.9829    2.9446    4.5376 O   0  0  0  0  0  0  0  0  0  0  0  0
    7.1851    4.8926    5.6344 O   0  0  0  0  0  0  0  0  0  0  0  0
    7.6165    6.0294    2.9311 C   0  0  0  0  0  0  0  0  0  0  0  0
    7.3488    2.1570    5.6090 C   0  0  0  0  0  0  0  0  0  0  0  0
    7.1984    6.7965    1.7099 C   0  0  0  0  0  0  0  0  0  0  0  0
    6.8965    6.1260    0.5679 O   0  0  0  0  0  0  0  0  0  0  0  0
    7.1397    8.0181    1.7509 O   0  0  0  0  0  0  0  0  0  0  0  0
    6.5033    6.7529   -0.5957 C   0  0  0  0  0  0  0  0  0  0  0  0
    5.5843    5.6516    3.6159 H   0  0  0  0  0  0  0  0  0  0  0  0
    6.2749    4.3633    2.5565 H   0  0  0  0  0  0  0  0  0  0  0  0
    8.5353    5.4513    2.6919 H   0  0  0  0  0  0  0  0  0  0  0  0
    7.8501    6.7395    3.7555 H   0  0  0  0  0  0  0  0  0  0  0  0
    7.3227    1.0912    5.3026 H   0  0  0  0  0  0  0  0  0  0  0  0
    6.6403    2.3036    6.4524 H   0  0  0  0  0  0  0  0  0  0  0  0
    8.3802    2.4096    5.9362 H   0  0  0  0  0  0  0  0  0  0  0  0
    7.3023    7.4383   -0.9513 H   0  0  0  0  0  0  0  0  0  0  0  0
    6.3169    5.9869   -1.3762 H   0  0  0  0  0  0  0  0  0  0  0  0
    5.5658    7.3245   -0.4253 H   0  0  0  0  0  0  0  0  0  0  0  0
  1  2  1  0  0  0  0
  1  5  1  0  0  0  0
  1 11  1  0  0  0  0
  1 12  1  0  0  0  0
  2  3  1  0  0  0  0
  2  4  2  0  0  0  0
  3  6  1  0  0  0  0
  5  7  1  0  0  0  0
  5 13  1  0  0  0  0
  5 14  1  0  0  0  0
  6 15  1  0  0  0  0
  6 16  1  0  0  0  0
  6 17  1  0  0  0  0
  7  8  1  0  0  0  0
  7  9  2  0  0  0  0
  8 10  1  0  0  0  0
 10 18  1  0  0  0  0
 10 19  1  0  0  0  0
 10 20  1  0  0  0  0
M  END
