  DIMETHYL PHTHALATE.mol	131-11-3
  NIST    06301519383D 1   1.00000  -687.99565
Copyright by the U.S. Sec. Commerce on behalf of U.S.A. All rights reserved.
 24 24  0  0  0  0  0  0  0  0999 V2000
    5.8923    3.4508    1.1882 O    0  0  0  0  0  0  0  0  0  0  0  0
    5.3855    4.6718    1.4464 C    0  0  0  0  0  0  0  0  0  0  0  0
    6.0249    5.7006    1.3940 O    0  0  0  0  0  0  0  0  0  0  0  0
    3.9061    4.6197    1.6968 C    0  0  0  0  0  0  0  0  0  0  0  0
    7.3185    3.4051    1.0226 C    0  0  0  0  0  0  0  0  0  0  0  0
    3.2960    3.7381    2.6113 C    0  0  0  0  0  0  0  0  0  0  0  0
    3.1128    5.4933    0.9482 C    0  0  0  0  0  0  0  0  0  0  0  0
    4.1264    2.9250    3.5516 C    0  0  0  0  0  0  0  0  0  0  0  0
    1.8995    3.7219    2.7209 C    0  0  0  0  0  0  0  0  0  0  0  0
    1.7236    5.4734    1.0689 C    0  0  0  0  0  0  0  0  0  0  0  0
    3.4691    1.8255    3.9859 O    0  0  0  0  0  0  0  0  0  0  0  0
    5.2428    3.2222    3.9246 O    0  0  0  0  0  0  0  0  0  0  0  0
    1.1157    4.5796    1.9505 C    0  0  0  0  0  0  0  0  0  0  0  0
    4.1797    1.0319    4.9498 C    0  0  0  0  0  0  0  0  0  0  0  0
    7.6350    4.0714    0.2163 H    0  0  0  0  0  0  0  0  0  0  0  0
    7.5506    2.3677    0.7798 H    0  0  0  0  0  0  0  0  0  0  0  0
    7.8113    3.7012    1.9524 H    0  0  0  0  0  0  0  0  0  0  0  0
    3.5993    6.1821    0.2650 H    0  0  0  0  0  0  0  0  0  0  0  0
    1.4362    3.0444    3.4294 H    0  0  0  0  0  0  0  0  0  0  0  0
    1.1196    6.1539    0.4754 H    0  0  0  0  0  0  0  0  0  0  0  0
    0.0342    4.5579    2.0499 H    0  0  0  0  0  0  0  0  0  0  0  0
    3.5122    0.2055    5.1956 H    0  0  0  0  0  0  0  0  0  0  0  0
    4.4085    1.6223    5.8410 H    0  0  0  0  0  0  0  0  0  0  0  0
    5.1139    0.6583    4.5225 H    0  0  0  0  0  0  0  0  0  0  0  0
  1  2  1  0  0  0  0
  1  5  1  0  0  0  0
  2  3  2  0  0  0  0
  2  4  1  0  0  0  0
  4  6  2  0  0  0  0
  5 15  1  0  0  0  0
  5 16  1  0  0  0  0
  5 17  1  0  0  0  0
  6  8  1  0  0  0  0
  6  9  1  0  0  0  0
  7  4  1  0  0  0  0
  7 18  1  0  0  0  0
  8 11  1  0  0  0  0
  8 12  2  0  0  0  0
  9 13  2  0  0  0  0
  9 19  1  0  0  0  0
 10  7  2  0  0  0  0
 10 20  1  0  0  0  0
 11 14  1  0  0  0  0
 13 10  1  0  0  0  0
 13 21  1  0  0  0  0
 14 22  1  0  0  0  0
 14 23  1  0  0  0  0
 14 24  1  0  0  0  0
M  END
