  DIMETHYL TEREPHTHALATE.mol	120-61-6
  NIST    07011500133D 1   1.00000  -688.00746
Copyright by the U.S. Sec. Commerce on behalf of U.S.A. All rights reserved.
 24 24  0  0  0  0  0  0  0  0999 V2000
    1.4787    1.1584    7.5900 O    0  0  0  0  0  0  0  0  0  0  0  0
    1.6716    2.3473    6.9764 C    0  0  0  0  0  0  0  0  0  0  0  0
    1.1626    3.3831    7.3569 O    0  0  0  0  0  0  0  0  0  0  0  0
    2.5727    2.2371    5.7913 C    0  0  0  0  0  0  0  0  0  0  0  0
    0.6194    1.1950    8.7403 C    0  0  0  0  0  0  0  0  0  0  0  0
    2.8469    3.4069    5.0699 C    0  0  0  0  0  0  0  0  0  0  0  0
    3.1405    1.0197    5.3887 C    0  0  0  0  0  0  0  0  0  0  0  0
    3.6796    3.3653    3.9570 C    0  0  0  0  0  0  0  0  0  0  0  0
    3.9731    0.9782    4.2757 C    0  0  0  0  0  0  0  0  0  0  0  0
    4.2474    2.1479    3.5544 C    0  0  0  0  0  0  0  0  0  0  0  0
    5.1483    2.0377    2.3691 C    0  0  0  0  0  0  0  0  0  0  0  0
    5.3415    3.2266    1.7557 O    0  0  0  0  0  0  0  0  0  0  0  0
    5.6570    1.0018    1.9885 O    0  0  0  0  0  0  0  0  0  0  0  0
    6.2005    3.1899    0.6052 C    0  0  0  0  0  0  0  0  0  0  0  0
   -0.3750    1.5556    8.4647 H    0  0  0  0  0  0  0  0  0  0  0  0
    0.5700    0.1670    9.1001 H    0  0  0  0  0  0  0  0  0  0  0  0
    1.0350    1.8527    9.5083 H    0  0  0  0  0  0  0  0  0  0  0  0
    2.3971    4.3377    5.3986 H    0  0  0  0  0  0  0  0  0  0  0  0
    2.9271    0.1165    5.9486 H    0  0  0  0  0  0  0  0  0  0  0  0
    3.8931    4.2686    3.3972 H    0  0  0  0  0  0  0  0  0  0  0  0
    4.4227    0.0472    3.9470 H    0  0  0  0  0  0  0  0  0  0  0  0
    6.2496    4.2178    0.2450 H    0  0  0  0  0  0  0  0  0  0  0  0
    7.1951    2.8296    0.8807 H    0  0  0  0  0  0  0  0  0  0  0  0
    5.7850    2.5317   -0.1625 H    0  0  0  0  0  0  0  0  0  0  0  0
  1  2  1  0  0  0  0
  1  5  1  0  0  0  0
  2  3  2  0  0  0  0
  2  4  1  0  0  0  0
  4  6  2  0  0  0  0
  5 15  1  0  0  0  0
  5 16  1  0  0  0  0
  5 17  1  0  0  0  0
  6  8  1  0  0  0  0
  6 18  1  0  0  0  0
  7  4  1  0  0  0  0
  7 19  1  0  0  0  0
  8 10  2  0  0  0  0
  8 20  1  0  0  0  0
  9  7  2  0  0  0  0
  9 21  1  0  0  0  0
 10  9  1  0  0  0  0
 10 11  1  0  0  0  0
 11 12  1  0  0  0  0
 11 13  2  0  0  0  0
 12 14  1  0  0  0  0
 14 22  1  0  0  0  0
 14 23  1  0  0  0  0
 14 24  1  0  0  0  0
M  END
