
 OpenBabel09301909303D

 14 13  0  0  0  0  0  0  0  0999 V2000
    6.5244   -2.7657    0.1932 C   0  0  0  0  0  0  0  0  0  0  0  0
    5.7773   -1.5701    0.5187 N   0  0  0  0  0  0  0  0  0  0  0  0
    5.9047   -0.4263   -0.2085 C   0  0  0  0  0  0  0  0  0  0  0  0
    5.1836    0.6774    0.1308 N   0  0  0  0  0  0  0  0  0  0  0  0
    6.6671   -0.3903   -1.1668 O   0  0  0  0  0  0  0  0  0  0  0  0
    5.2883    1.9133   -0.6144 C   0  0  0  0  0  0  0  0  0  0  0  0
    6.2712   -3.5760    0.9094 H   0  0  0  0  0  0  0  0  0  0  0  0
    6.2695   -3.1055   -0.8332 H   0  0  0  0  0  0  0  0  0  0  0  0
    7.6145   -2.5620    0.2573 H   0  0  0  0  0  0  0  0  0  0  0  0
    5.1336   -1.5935    1.3244 H   0  0  0  0  0  0  0  0  0  0  0  0
    4.5435    0.6402    0.9388 H   0  0  0  0  0  0  0  0  0  0  0  0
    4.6185    2.6800   -0.1705 H   0  0  0  0  0  0  0  0  0  0  0  0
    4.9875    1.7468   -1.6708 H   0  0  0  0  0  0  0  0  0  0  0  0
    6.3326    2.2904   -0.5803 H   0  0  0  0  0  0  0  0  0  0  0  0
  1  2  1  0  0  0  0
  1  7  1  0  0  0  0
  1  8  1  0  0  0  0
  1  9  1  0  0  0  0
  2  3  1  0  0  0  0
  2 10  1  0  0  0  0
  3  4  1  0  0  0  0
  3  5  2  0  0  0  0
  4  6  1  0  0  0  0
  4 11  1  0  0  0  0
  6 12  1  0  0  0  0
  6 13  1  0  0  0  0
  6 14  1  0  0  0  0
M  END
