  DIMETHYL PHENYL CARBINOL.mol	617-94-7
  NIST    06231422463D 1   1.00000  -425.40486
Copyright by the U.S. Sec. Commerce on behalf of U.S.A. All rights reserved.
 22 22  0  0  0  0  0  0  0  0999 V2000
    7.3149    3.9457    0.2195 C    0  0  0  0  0  0  0  0  0  0  0  0
    7.2105    3.0272   -1.0064 C    0  0  0  0  0  0  0  0  0  0  0  0
    6.7524    3.8197   -2.2436 C    0  0  0  0  0  0  0  0  0  0  0  0
    8.5543    2.5705   -1.2309 O    0  0  0  0  0  0  0  0  0  0  0  0
    6.2822    1.8418   -0.6979 C    0  0  0  0  0  0  0  0  0  0  0  0
    6.8219    0.6142   -0.2913 C    0  0  0  0  0  0  0  0  0  0  0  0
    4.8861    1.9599   -0.7716 C    0  0  0  0  0  0  0  0  0  0  0  0
    5.9946   -0.4665    0.0198 C    0  0  0  0  0  0  0  0  0  0  0  0
    4.0572    0.8823   -0.4584 C    0  0  0  0  0  0  0  0  0  0  0  0
    4.6082   -0.3382   -0.0642 C    0  0  0  0  0  0  0  0  0  0  0  0
    7.7042    3.3856    1.0750 H    0  0  0  0  0  0  0  0  0  0  0  0
    6.3335    4.3499    0.4867 H    0  0  0  0  0  0  0  0  0  0  0  0
    7.9963    4.7768    0.0078 H    0  0  0  0  0  0  0  0  0  0  0  0
    6.6678    3.1631   -3.1184 H    0  0  0  0  0  0  0  0  0  0  0  0
    5.7815    4.3026   -2.0956 H    0  0  0  0  0  0  0  0  0  0  0  0
    7.4907    4.5974   -2.4626 H    0  0  0  0  0  0  0  0  0  0  0  0
    8.5356    1.9949   -2.0132 H    0  0  0  0  0  0  0  0  0  0  0  0
    7.8998    0.5158   -0.2144 H    0  0  0  0  0  0  0  0  0  0  0  0
    4.4332    2.9001   -1.0734 H    0  0  0  0  0  0  0  0  0  0  0  0
    6.4371   -1.4096    0.3308 H    0  0  0  0  0  0  0  0  0  0  0  0
    2.9783    0.9974   -0.5250 H    0  0  0  0  0  0  0  0  0  0  0  0
    3.9627   -1.1786    0.1770 H    0  0  0  0  0  0  0  0  0  0  0  0
  1  2  1  0
  2  3  1  0
  2  4  1  0
  2  5  1  0
  5  6  1  0
  6  8  2  0
  8 10  1  0
 10  9  2  0
  9  7  1  0
  5  7  2  0
  1 11  1  0
  1 12  1  0
  1 13  1  0
  3 14  1  0
  3 15  1  0
  3 16  1  0
  4 17  1  0
  6 18  1  0
  7 19  1  0
  8 20  1  0
  9 21  1  0
 10 22  1  0
M  END
