  DIPHENYL ETHER.mol	101-84-8
  NIST    07011516143D 1   1.00000  -538.51283
Copyright by the U.S. Sec. Commerce on behalf of U.S.A. All rights reserved.
 23 24  0  0  0  0  0  0  0  0999 V2000
    4.6529    2.0726    0.4807 O    0  0  0  0  0  0  0  0  0  0  0  0
    3.4313    1.9841    1.1209 C    0  0  0  0  0  0  0  0  0  0  0  0
    5.8334    2.0598    1.1990 C    0  0  0  0  0  0  0  0  0  0  0  0
    3.1573    2.6493    2.3198 C    0  0  0  0  0  0  0  0  0  0  0  0
    2.4339    1.2585    0.4662 C    0  0  0  0  0  0  0  0  0  0  0  0
    6.0340    1.2332    2.3087 C    0  0  0  0  0  0  0  0  0  0  0  0
    6.8695    2.8592    0.7114 C    0  0  0  0  0  0  0  0  0  0  0  0
    1.8749    2.5714    2.8641 C    0  0  0  0  0  0  0  0  0  0  0  0
    1.1544    1.1963    1.0173 C    0  0  0  0  0  0  0  0  0  0  0  0
    7.2813    1.2234    2.9341 C    0  0  0  0  0  0  0  0  0  0  0  0
    8.1134    2.8328    1.3411 C    0  0  0  0  0  0  0  0  0  0  0  0
    0.8696    1.8477    2.2193 C    0  0  0  0  0  0  0  0  0  0  0  0
    8.3245    2.0195    2.4566 C    0  0  0  0  0  0  0  0  0  0  0  0
    3.9366    3.2204    2.8136 H    0  0  0  0  0  0  0  0  0  0  0  0
    2.6763    0.7580   -0.4659 H    0  0  0  0  0  0  0  0  0  0  0  0
    5.2260    0.6067    2.6718 H    0  0  0  0  0  0  0  0  0  0  0  0
    6.6846    3.4852   -0.1559 H    0  0  0  0  0  0  0  0  0  0  0  0
    1.6613    3.0890    3.7956 H    0  0  0  0  0  0  0  0  0  0  0  0
    0.3797    0.6314    0.5057 H    0  0  0  0  0  0  0  0  0  0  0  0
    7.4375    0.5806    3.7964 H    0  0  0  0  0  0  0  0  0  0  0  0
    8.9182    3.4552    0.9593 H    0  0  0  0  0  0  0  0  0  0  0  0
   -0.1268    1.7942    2.6486 H    0  0  0  0  0  0  0  0  0  0  0  0
    9.2932    2.0043    2.9478 H    0  0  0  0  0  0  0  0  0  0  0  0
  1  2  1  0  0  0  0
  1  3  1  0  0  0  0
  2  5  1  0  0  0  0
  3  7  1  0  0  0  0
  4  2  2  0  0  0  0
  4 14  1  0  0  0  0
  5  9  2  0  0  0  0
  5 15  1  0  0  0  0
  6  3  2  0  0  0  0
  6 16  1  0  0  0  0
  7 11  2  0  0  0  0
  7 17  1  0  0  0  0
  8  4  1  0  0  0  0
  8 18  1  0  0  0  0
  9 12  1  0  0  0  0
  9 19  1  0  0  0  0
 10  6  1  0  0  0  0
 10 20  1  0  0  0  0
 11 13  1  0  0  0  0
 11 21  1  0  0  0  0
 12  8  2  0  0  0  0
 12 22  1  0  0  0  0
 13 10  2  0  0  0  0
 13 23  1  0  0  0  0
M  END
