  DIPHENYLMETHANE.mol	101-81-5
  NIST    07011518283D 1   1.00000  -502.61541
Copyright by the U.S. Sec. Commerce on behalf of U.S.A. All rights reserved.
 25 26  0  0  0  0  0  0  0  0999 V2000
    2.7367    2.7168    1.0605 C    0  0  0  0  0  0  0  0  0  0  0  0
    4.0831    2.2402    1.5822 C    0  0  0  0  0  0  0  0  0  0  0  0
    4.3202    0.8825    1.8244 C    0  0  0  0  0  0  0  0  0  0  0  0
    5.5635    0.4404    2.2839 C    0  0  0  0  0  0  0  0  0  0  0  0
    6.5910    1.3557    2.5085 C    0  0  0  0  0  0  0  0  0  0  0  0
    6.3661    2.7148    2.2721 C    0  0  0  0  0  0  0  0  0  0  0  0
    5.1239    3.1513    1.8154 C    0  0  0  0  0  0  0  0  0  0  0  0
    2.0592    3.7724    1.9207 C    0  0  0  0  0  0  0  0  0  0  0  0
    1.8024    3.5330    3.2787 C    0  0  0  0  0  0  0  0  0  0  0  0
    1.1608    4.4894    4.0636 C    0  0  0  0  0  0  0  0  0  0  0  0
    0.7658    5.7081    3.5050 C    0  0  0  0  0  0  0  0  0  0  0  0
    1.0185    5.9596    2.1570 C    0  0  0  0  0  0  0  0  0  0  0  0
    1.6607    4.9972    1.3736 C    0  0  0  0  0  0  0  0  0  0  0  0
    2.0723    1.8482    0.9601 H    0  0  0  0  0  0  0  0  0  0  0  0
    2.8610    3.1185    0.0460 H    0  0  0  0  0  0  0  0  0  0  0  0
    3.5240    0.1620    1.6487 H    0  0  0  0  0  0  0  0  0  0  0  0
    5.7258   -0.6189    2.4662 H    0  0  0  0  0  0  0  0  0  0  0  0
    7.5593    1.0156    2.8660 H    0  0  0  0  0  0  0  0  0  0  0  0
    7.1607    3.4361    2.4457 H    0  0  0  0  0  0  0  0  0  0  0  0
    4.9530    4.2113    1.6431 H    0  0  0  0  0  0  0  0  0  0  0  0
    2.1157    2.5910    3.7225 H    0  0  0  0  0  0  0  0  0  0  0  0
    0.9695    4.2847    5.1140 H    0  0  0  0  0  0  0  0  0  0  0  0
    0.2670    6.4545    4.1175 H    0  0  0  0  0  0  0  0  0  0  0  0
    0.7183    6.9049    1.7119 H    0  0  0  0  0  0  0  0  0  0  0  0
    1.8522    5.1995    0.3219 H    0  0  0  0  0  0  0  0  0  0  0  0
  1  2  1  0  0  0  0
  1  8  1  0  0  0  0
  1 14  1  0  0  0  0
  1 15  1  0  0  0  0
  2  7  1  0  0  0  0
  3  2  2  0  0  0  0
  3 16  1  0  0  0  0
  4  3  1  0  0  0  0
  4 17  1  0  0  0  0
  5  4  2  0  0  0  0
  5 18  1  0  0  0  0
  6  5  1  0  0  0  0
  6 19  1  0  0  0  0
  7  6  2  0  0  0  0
  7 20  1  0  0  0  0
  8  9  2  0  0  0  0
  9 10  1  0  0  0  0
  9 21  1  0  0  0  0
 10 11  2  0  0  0  0
 10 22  1  0  0  0  0
 11 12  1  0  0  0  0
 11 23  1  0  0  0  0
 12 13  2  0  0  0  0
 12 24  1  0  0  0  0
 13  8  1  0  0  0  0
 13 25  1  0  0  0  0
M  END
