  DIPROPYL KETONE.mol	123-19-3
  NIST    06301518093D 1   1.00000  -350.41216
Copyright by the U.S. Sec. Commerce on behalf of U.S.A. All rights reserved.
 22 21  0  0  0  0  0  0  0  0999 V2000
    1.8109    1.6058    1.6465 C    0  0  0  0  0  0  0  0  0  0  0  0
    3.2672    1.5925    2.1085 C    0  0  0  0  0  0  0  0  0  0  0  0
    4.2185    2.5328    1.3760 C    0  0  0  0  0  0  0  0  0  0  0  0
    3.6516    0.8598    3.0021 O    0  0  0  0  0  0  0  0  0  0  0  0
    0.8338    0.9294    2.6144 C    0  0  0  0  0  0  0  0  0  0  0  0
    5.6947    2.3221    1.7181 C    0  0  0  0  0  0  0  0  0  0  0  0
    0.6069    1.7244    3.9046 C    0  0  0  0  0  0  0  0  0  0  0  0
    6.6163    3.3099    0.9969 C    0  0  0  0  0  0  0  0  0  0  0  0
    1.7937    1.0983    0.6690 H    0  0  0  0  0  0  0  0  0  0  0  0
    1.5100    2.6428    1.4377 H    0  0  0  0  0  0  0  0  0  0  0  0
    4.0443    2.4349    0.2937 H    0  0  0  0  0  0  0  0  0  0  0  0
    3.9094    3.5623    1.6190 H    0  0  0  0  0  0  0  0  0  0  0  0
    1.2199   -0.0658    2.8611 H    0  0  0  0  0  0  0  0  0  0  0  0
   -0.1240    0.7829    2.0989 H    0  0  0  0  0  0  0  0  0  0  0  0
    5.8223    2.4069    2.8031 H    0  0  0  0  0  0  0  0  0  0  0  0
    5.9770    1.2925    1.4660 H    0  0  0  0  0  0  0  0  0  0  0  0
   -0.1111    1.2156    4.5576 H    0  0  0  0  0  0  0  0  0  0  0  0
    1.5413    1.8398    4.4630 H    0  0  0  0  0  0  0  0  0  0  0  0
    0.2098    2.7251    3.6908 H    0  0  0  0  0  0  0  0  0  0  0  0
    7.6656    3.1334    1.2587 H    0  0  0  0  0  0  0  0  0  0  0  0
    6.3779    4.3473    1.2631 H    0  0  0  0  0  0  0  0  0  0  0  0
    6.5269    3.2204   -0.0931 H    0  0  0  0  0  0  0  0  0  0  0  0
  1  2  1  0  0  0  0
  1  5  1  0  0  0  0
  1  9  1  0  0  0  0
  1 10  1  0  0  0  0
  2  3  1  0  0  0  0
  2  4  2  0  0  0  0
  3  6  1  0  0  0  0
  3 11  1  0  0  0  0
  3 12  1  0  0  0  0
  5  7  1  0  0  0  0
  5 13  1  0  0  0  0
  5 14  1  0  0  0  0
  6  8  1  0  0  0  0
  6 15  1  0  0  0  0
  6 16  1  0  0  0  0
  7 17  1  0  0  0  0
  7 18  1  0  0  0  0
  7 19  1  0  0  0  0
  8 20  1  0  0  0  0
  8 21  1  0  0  0  0
  8 22  1  0  0  0  0
M  END
