
 OpenBabel09231910193D

 39 40  0  0  0  0  0  0  0  0999 V2000
   -0.4588   -0.9215    1.7082 C   0  0  0  0  0  0  0  0  0  0  0  0
   -0.2183   -2.0225    2.7667 C   0  0  0  0  0  0  0  0  0  0  0  0
   -0.8577   -1.0470    0.4024 C   0  0  0  0  0  0  0  0  0  0  0  0
   -0.1817    0.4788    2.2068 C   0  0  0  0  0  0  0  0  0  0  0  0
   -0.3442   -3.5319    2.4744 C   0  0  0  0  0  0  0  0  0  0  0  0
    0.6479   -4.1396    1.4335 C   0  0  1  0  0  0  0  0  0  0  0  0
    1.6113   -3.2508    0.6092 C   0  0  2  0  0  0  0  0  0  0  0  0
    1.9184   -4.8888    1.9272 C   0  0  0  0  0  0  0  0  0  0  0  0
    1.2638   -2.6565   -0.7422 C   0  0  0  0  0  0  0  0  0  0  0  0
    2.6384   -4.3887    0.6591 C   0  0  0  0  0  0  0  0  0  0  0  0
   -0.1344   -2.7283   -1.3376 C   0  0  0  0  0  0  0  0  0  0  0  0
    2.2237   -1.9859   -1.4018 C   0  0  0  0  0  0  0  0  0  0  0  0
   -1.2190   -2.3086   -0.3413 C   0  0  0  0  0  0  0  0  0  0  0  0
    1.7767   -6.4134    2.0496 C   0  0  0  0  0  0  0  0  0  0  0  0
    2.5716   -4.3064    3.2083 C   0  0  0  0  0  0  0  0  0  0  0  0
    0.1148   -4.8454    0.7522 H   0  0  0  0  0  0  0  0  0  0  0  0
    1.9883   -2.4289    1.2566 H   0  0  0  0  0  0  0  0  0  0  0  0
    0.8038   -1.8681    3.1682 H   0  0  0  0  0  0  0  0  0  0  0  0
   -0.9187   -1.8057    3.6021 H   0  0  0  0  0  0  0  0  0  0  0  0
   -0.9127   -0.1448   -0.2010 H   0  0  0  0  0  0  0  0  0  0  0  0
   -0.3512    1.2620    1.4370 H   0  0  0  0  0  0  0  0  0  0  0  0
    0.8757    0.5526    2.5375 H   0  0  0  0  0  0  0  0  0  0  0  0
   -0.8442    0.7026    3.0691 H   0  0  0  0  0  0  0  0  0  0  0  0
   -0.2270   -4.1017    3.4194 H   0  0  0  0  0  0  0  0  0  0  0  0
   -1.3978   -3.7607    2.2245 H   0  0  0  0  0  0  0  0  0  0  0  0
    3.7194   -4.1360    0.7049 H   0  0  0  0  0  0  0  0  0  0  0  0
    2.4201   -5.0801   -0.1892 H   0  0  0  0  0  0  0  0  0  0  0  0
   -0.3570   -3.7635   -1.6749 H   0  0  0  0  0  0  0  0  0  0  0  0
   -0.1928   -2.0687   -2.2316 H   0  0  0  0  0  0  0  0  0  0  0  0
    3.2231   -1.8986   -0.9852 H   0  0  0  0  0  0  0  0  0  0  0  0
    2.0254   -1.5189   -2.3616 H   0  0  0  0  0  0  0  0  0  0  0  0
   -2.1949   -2.1800   -0.8556 H   0  0  0  0  0  0  0  0  0  0  0  0
   -1.4056   -3.1462    0.3055 H   0  0  0  0  0  0  0  0  0  0  0  0
    1.3414   -6.8494    1.1253 H   0  0  0  0  0  0  0  0  0  0  0  0
    1.1112   -6.6651    2.9024 H   0  0  0  0  0  0  0  0  0  0  0  0
    2.7713   -6.8786    2.2168 H   0  0  0  0  0  0  0  0  0  0  0  0
    3.5699   -4.7697    3.3593 H   0  0  0  0  0  0  0  0  0  0  0  0
    2.7253   -3.2107    3.1692 H   0  0  0  0  0  0  0  0  0  0  0  0
    1.9523   -4.5368    4.0998 H   0  0  0  0  0  0  0  0  0  0  0  0
  1  2  1  0  0  0  0
  1  4  1  0  0  0  0
  2  5  1  0  0  0  0
  2 18  1  0  0  0  0
  2 19  1  0  0  0  0
  3  1  2  0  0  0  0
  3 20  1  0  0  0  0
  4 21  1  0  0  0  0
  4 22  1  0  0  0  0
  4 23  1  0  0  0  0
  5  6  1  0  0  0  0
  5 24  1  0  0  0  0
  5 25  1  0  0  0  0
  6  8  1  0  0  0  0
  6 16  1  6  0  0  0
  7  6  1  0  0  0  0
  7  9  1  0  0  0  0
  7 10  1  0  0  0  0
  7 17  1  1  0  0  0
  8 10  1  0  0  0  0
  8 14  1  0  0  0  0
  8 15  1  0  0  0  0
  9 11  1  0  0  0  0
  9 12  2  0  0  0  0
 10 26  1  0  0  0  0
 10 27  1  0  0  0  0
 11 13  1  0  0  0  0
 11 28  1  0  0  0  0
 11 29  1  0  0  0  0
 12 30  1  0  0  0  0
 12 31  1  0  0  0  0
 13  3  1  0  0  0  0
 13 32  1  0  0  0  0
 13 33  1  0  0  0  0
 14 34  1  0  0  0  0
 14 35  1  0  0  0  0
 14 36  1  0  0  0  0
 15 37  1  0  0  0  0
 15 38  1  0  0  0  0
 15 39  1  0  0  0  0
M  END
