  EPSILON-CAPROLACTAM.mol	105-60-2
  NIST    06121422523D 1   1.00000  -365.25079
Copyright by the U.S. Sec. Commerce on behalf of U.S.A. All rights reserved.
 19 19  0  0  0  0  0  0  0  0999 V2000
   -6.2313    0.4318    0.3884 C    0  0  0  0  0  0  0  0  0  0  0  0
   -5.0532    1.4008    0.7139 C    0  0  0  0  0  0  0  0  0  0  0  0
   -5.8393   -0.8771   -0.3213 C    0  0  0  0  0  0  0  0  0  0  0  0
   -3.6824    0.7265    0.7539 C    0  0  0  0  0  0  0  0  0  0  0  0
   -3.2101    0.3003   -0.4650 N    0  0  0  0  0  0  0  0  0  0  0  0
   -3.0365    0.5772    1.7830 O    0  0  0  0  0  0  0  0  0  0  0  0
   -3.9904    0.2863   -1.6962 C    0  0  0  0  0  0  0  0  0  0  0  0
   -5.1610   -0.7235   -1.6933 C    0  0  0  0  0  0  0  0  0  0  0  0
   -6.9810    0.9675   -0.2079 H    0  0  0  0  0  0  0  0  0  0  0  0
   -6.7256    0.1599    1.3279 H    0  0  0  0  0  0  0  0  0  0  0  0
   -5.1975    1.8605    1.6938 H    0  0  0  0  0  0  0  0  0  0  0  0
   -5.0220    2.2142   -0.0212 H    0  0  0  0  0  0  0  0  0  0  0  0
   -6.7384   -1.4943   -0.4421 H    0  0  0  0  0  0  0  0  0  0  0  0
   -5.1729   -1.4451    0.3401 H    0  0  0  0  0  0  0  0  0  0  0  0
   -2.3463   -0.2254   -0.4170 H    0  0  0  0  0  0  0  0  0  0  0  0
   -3.3041    0.0732   -2.5215 H    0  0  0  0  0  0  0  0  0  0  0  0
   -4.3748    1.2970   -1.8762 H    0  0  0  0  0  0  0  0  0  0  0  0
   -5.8921   -0.4004   -2.4470 H    0  0  0  0  0  0  0  0  0  0  0  0
   -4.8004   -1.7099   -2.0125 H    0  0  0  0  0  0  0  0  0  0  0  0
  4  6  2  0
  5  4  1  0
  4  2  1  0
  2  1  1  0
  1  3  1  0
  3  8  1  0
  8  7  1  0
  5  7  1  0
  1  9  1  0
  1 10  1  0
  2 11  1  0
  2 12  1  0
  3 13  1  0
  3 14  1  0
  5 15  1  0
  7 16  1  0
  7 17  1  0
  8 18  1  0
  8 19  1  0
M  END
