  ERYTHRITOL.mol	149-32-6
  NIST    06301516043D 1   1.00000  -459.29150
Copyright by the U.S. Sec. Commerce on behalf of U.S.A. All rights reserved.
 18 17  0  0  1  0  0  0  0  0999 V2000
    1.2006    1.5492    5.4944 O    0  0  0  0  0  0  0  0  0  0  0  0
    0.9112    1.1938    4.1373 C    0  0  0  0  0  0  0  0  0  0  0  0
    2.1151    1.6657    3.3294 C    0  0  0  0  0  0  0  0  0  0  0  0
    3.3049    1.1163    3.8963 O    0  0  0  0  0  0  0  0  0  0  0  0
    2.0582    1.2494    1.8581 C    0  0  0  0  0  0  0  0  0  0  0  0
    0.9067    1.9042    1.3249 O    0  0  0  0  0  0  0  0  0  0  0  0
    3.3326    1.6474    1.0921 C    0  0  0  0  0  0  0  0  0  0  0  0
    4.4429    0.8328    1.4056 O    0  0  0  0  0  0  0  0  0  0  0  0
    0.5677    1.0994    6.0725 H    0  0  0  0  0  0  0  0  0  0  0  0
    0.8049    0.1037    4.0317 H    0  0  0  0  0  0  0  0  0  0  0  0
   -0.0031    1.6788    3.7755 H    0  0  0  0  0  0  0  0  0  0  0  0
    2.1505    2.7663    3.3719 H    0  0  0  0  0  0  0  0  0  0  0  0
    3.2045    1.2194    4.8590 H    0  0  0  0  0  0  0  0  0  0  0  0
    1.9585    0.1533    1.8011 H    0  0  0  0  0  0  0  0  0  0  0  0
    0.8039    1.6158    0.4050 H    0  0  0  0  0  0  0  0  0  0  0  0
    3.1472    1.5232    0.0167 H    0  0  0  0  0  0  0  0  0  0  0  0
    3.5326    2.7190    1.2644 H    0  0  0  0  0  0  0  0  0  0  0  0
    4.5211    0.8540    2.3765 H    0  0  0  0  0  0  0  0  0  0  0  0
  1  2  1  0  0  0  0
  1  9  1  0  0  0  0
  2  3  1  0  0  0  0
  2 10  1  0  0  0  0
  2 11  1  0  0  0  0
  3  4  1  0  0  0  0
  3  5  1  0  0  0  0
  3 12  1  1  0  0  0
  4 13  1  0  0  0  0
  5  6  1  0  0  0  0
  5  7  1  0  0  0  0
  5 14  1  6  0  0  0
  6 15  1  0  0  0  0
  7  8  1  0  0  0  0
  7 16  1  0  0  0  0
  7 17  1  0  0  0  0
  8 18  1  0  0  0  0
M  END
