  ETHYLENE GLYCOL DIACETATE.mol	111-55-7
  NIST    06301519553D 1   1.00000  -535.58079
Copyright by the U.S. Sec. Commerce on behalf of U.S.A. All rights reserved.
 20 19  0  0  0  0  0  0  0  0999 V2000
    1.9669    2.6346    0.2968 O    0  0  0  0  0  0  0  0  0  0  0  0
    2.0792    1.7317    1.0959 C    0  0  0  0  0  0  0  0  0  0  0  0
    3.2732    1.2682    1.5490 O    0  0  0  0  0  0  0  0  0  0  0  0
    0.9405    0.9630    1.7222 C    0  0  0  0  0  0  0  0  0  0  0  0
    4.4540    1.8901    1.0053 C    0  0  0  0  0  0  0  0  0  0  0  0
    4.7811    3.1641    1.7812 C    0  0  0  0  0  0  0  0  0  0  0  0
    5.9620    3.7859    1.2374 O    0  0  0  0  0  0  0  0  0  0  0  0
    7.1560    3.3225    1.6907 C    0  0  0  0  0  0  0  0  0  0  0  0
    7.2681    2.4198    2.4900 O    0  0  0  0  0  0  0  0  0  0  0  0
    8.2947    4.0911    1.0643 C    0  0  0  0  0  0  0  0  0  0  0  0
    1.0178   -0.0983    1.4639 H    0  0  0  0  0  0  0  0  0  0  0  0
    0.9908    1.0366    2.8134 H    0  0  0  0  0  0  0  0  0  0  0  0
   -0.0083    1.3640    1.3646 H    0  0  0  0  0  0  0  0  0  0  0  0
    5.2502    1.1546    1.1280 H    0  0  0  0  0  0  0  0  0  0  0  0
    4.3017    2.1167   -0.0524 H    0  0  0  0  0  0  0  0  0  0  0  0
    3.9849    3.8996    1.6584 H    0  0  0  0  0  0  0  0  0  0  0  0
    4.9335    2.9376    2.8389 H    0  0  0  0  0  0  0  0  0  0  0  0
    8.2174    5.1525    1.3224 H    0  0  0  0  0  0  0  0  0  0  0  0
    8.2444    4.0172   -0.0269 H    0  0  0  0  0  0  0  0  0  0  0  0
    9.2435    3.6902    1.4221 H    0  0  0  0  0  0  0  0  0  0  0  0
  1  2  2  0  0  0  0
  2  3  1  0  0  0  0
  2  4  1  0  0  0  0
  3  5  1  0  0  0  0
  4 11  1  0  0  0  0
  4 12  1  0  0  0  0
  4 13  1  0  0  0  0
  5  6  1  0  0  0  0
  5 14  1  0  0  0  0
  5 15  1  0  0  0  0
  6  7  1  0  0  0  0
  6 16  1  0  0  0  0
  6 17  1  0  0  0  0
  7  8  1  0  0  0  0
  8  9  2  0  0  0  0
  8 10  1  0  0  0  0
 10 18  1  0  0  0  0
 10 19  1  0  0  0  0
 10 20  1  0  0  0  0
M  END
