  ETHYL VANILLIN.mol	121-32-4
  NIST    07011511583D 1   1.00000  -574.62632
Copyright by the U.S. Sec. Commerce on behalf of U.S.A. All rights reserved.
 22 22  0  0  0  0  0  0  0  0999 V2000
    3.8284    3.1483    1.5212 C    0  0  0  0  0  0  0  0  0  0  0  0
    3.2030    4.3833    1.5963 C    0  0  0  0  0  0  0  0  0  0  0  0
    3.0529    2.0009    1.2242 C    0  0  0  0  0  0  0  0  0  0  0  0
    5.1642    3.0426    1.8052 O    0  0  0  0  0  0  0  0  0  0  0  0
    1.8197    4.5087    1.3805 C    0  0  0  0  0  0  0  0  0  0  0  0
    1.0649    3.3706    1.0767 C    0  0  0  0  0  0  0  0  0  0  0  0
    1.1673    5.8278    1.4660 C    0  0  0  0  0  0  0  0  0  0  0  0
    1.6785    2.1235    0.9978 C    0  0  0  0  0  0  0  0  0  0  0  0
    3.7012    0.8040    1.1811 O    0  0  0  0  0  0  0  0  0  0  0  0
    6.0291    2.7329    0.6952 C    0  0  0  0  0  0  0  0  0  0  0  0
    7.4497    2.6816    1.2265 C    0  0  0  0  0  0  0  0  0  0  0  0
    1.7364    6.8742    1.7182 O    0  0  0  0  0  0  0  0  0  0  0  0
    3.7894    5.2644    1.8360 H    0  0  0  0  0  0  0  0  0  0  0  0
   -0.0052    3.4602    0.9052 H    0  0  0  0  0  0  0  0  0  0  0  0
    0.0700    5.8109    1.2762 H    0  0  0  0  0  0  0  0  0  0  0  0
    1.0934    1.2343    0.7692 H    0  0  0  0  0  0  0  0  0  0  0  0
    3.0582    0.1037    0.9863 H    0  0  0  0  0  0  0  0  0  0  0  0
    5.7386    1.7730    0.2536 H    0  0  0  0  0  0  0  0  0  0  0  0
    5.9208    3.5139   -0.0707 H    0  0  0  0  0  0  0  0  0  0  0  0
    7.5458    1.9025    1.9893 H    0  0  0  0  0  0  0  0  0  0  0  0
    7.7297    3.6401    1.6749 H    0  0  0  0  0  0  0  0  0  0  0  0
    8.1486    2.4600    0.4123 H    0  0  0  0  0  0  0  0  0  0  0  0
  1  3  1  0  0  0  0
  1  4  1  0  0  0  0
  2  1  2  0  0  0  0
  2 13  1  0  0  0  0
  3  8  2  0  0  0  0
  3  9  1  0  0  0  0
  4 10  1  0  0  0  0
  5  2  1  0  0  0  0
  5  7  1  0  0  0  0
  6  5  2  0  0  0  0
  6 14  1  0  0  0  0
  7 12  2  0  0  0  0
  7 15  1  0  0  0  0
  8  6  1  0  0  0  0
  8 16  1  0  0  0  0
  9 17  1  0  0  0  0
 10 11  1  0  0  0  0
 10 18  1  0  0  0  0
 10 19  1  0  0  0  0
 11 20  1  0  0  0  0
 11 21  1  0  0  0  0
 11 22  1  0  0  0  0
M  END
