  ETHYL ADIPATE.mol	141-28-6
  NIST    07011504073D 1   1.00000  -692.83920
Copyright by the U.S. Sec. Commerce on behalf of U.S.A. All rights reserved.
 32 31  0  0  0  0  0  0  0  0999 V2000
    1.0978    0.6476    1.0539 C    0  0  0  0  0  0  0  0  0  0  0  0
    1.0942    2.1444    1.3011 C    0  0  0  0  0  0  0  0  0  0  0  0
    1.9352    2.3980    2.4503 O    0  0  0  0  0  0  0  0  0  0  0  0
    7.4231    2.8131    1.8219 C    0  0  0  0  0  0  0  0  0  0  0  0
    6.4773    2.5212    2.9722 C    0  0  0  0  0  0  0  0  0  0  0  0
    7.1665    3.4982    0.8552 O    0  0  0  0  0  0  0  0  0  0  0  0
    8.6107    2.1922    2.0045 O    0  0  0  0  0  0  0  0  0  0  0  0
    5.1911    3.3472    2.9126 C    0  0  0  0  0  0  0  0  0  0  0  0
    4.2226    3.0009    4.0499 C    0  0  0  0  0  0  0  0  0  0  0  0
    2.9413    3.8501    4.0436 C    0  0  0  0  0  0  0  0  0  0  0  0
    2.0658    3.6963    2.8114 C    0  0  0  0  0  0  0  0  0  0  0  0
    1.5179    4.6080    2.2309 O    0  0  0  0  0  0  0  0  0  0  0  0
    9.5895    2.3808    0.9565 C    0  0  0  0  0  0  0  0  0  0  0  0
   10.8362    1.6122    1.3525 C    0  0  0  0  0  0  0  0  0  0  0  0
    2.1112    0.2868    0.8503 H    0  0  0  0  0  0  0  0  0  0  0  0
    0.7067    0.1059    1.9213 H    0  0  0  0  0  0  0  0  0  0  0  0
    0.4686    0.4122    0.1885 H    0  0  0  0  0  0  0  0  0  0  0  0
    1.4873    2.7042    0.4466 H    0  0  0  0  0  0  0  0  0  0  0  0
    0.0890    2.5248    1.5099 H    0  0  0  0  0  0  0  0  0  0  0  0
    6.2520    1.4455    2.9503 H    0  0  0  0  0  0  0  0  0  0  0  0
    7.0190    2.6874    3.9123 H    0  0  0  0  0  0  0  0  0  0  0  0
    5.4439    4.4147    2.9472 H    0  0  0  0  0  0  0  0  0  0  0  0
    4.7076    3.1831    1.9427 H    0  0  0  0  0  0  0  0  0  0  0  0
    4.7229    3.1469    5.0171 H    0  0  0  0  0  0  0  0  0  0  0  0
    3.9503    1.9402    3.9950 H    0  0  0  0  0  0  0  0  0  0  0  0
    2.3235    3.5807    4.9114 H    0  0  0  0  0  0  0  0  0  0  0  0
    3.1706    4.9164    4.1319 H    0  0  0  0  0  0  0  0  0  0  0  0
    9.1685    2.0231    0.0112 H    0  0  0  0  0  0  0  0  0  0  0  0
    9.7848    3.4523    0.8448 H    0  0  0  0  0  0  0  0  0  0  0  0
   11.2397    1.9822    2.3006 H    0  0  0  0  0  0  0  0  0  0  0  0
   10.6193    0.5449    1.4640 H    0  0  0  0  0  0  0  0  0  0  0  0
   11.6056    1.7289    0.5815 H    0  0  0  0  0  0  0  0  0  0  0  0
  1  2  1  0  0  0  0
  1 15  1  0  0  0  0
  1 16  1  0  0  0  0
  1 17  1  0  0  0  0
  2  3  1  0  0  0  0
  2 18  1  0  0  0  0
  2 19  1  0  0  0  0
  3 11  1  0  0  0  0
  4  5  1  0  0  0  0
  4  6  2  0  0  0  0
  4  7  1  0  0  0  0
  5  8  1  0  0  0  0
  5 20  1  0  0  0  0
  5 21  1  0  0  0  0
  7 13  1  0  0  0  0
  8  9  1  0  0  0  0
  8 22  1  0  0  0  0
  8 23  1  0  0  0  0
  9 10  1  0  0  0  0
  9 24  1  0  0  0  0
  9 25  1  0  0  0  0
 10 11  1  0  0  0  0
 10 26  1  0  0  0  0
 10 27  1  0  0  0  0
 11 12  2  0  0  0  0
 13 14  1  0  0  0  0
 13 28  1  0  0  0  0
 13 29  1  0  0  0  0
 14 30  1  0  0  0  0
 14 31  1  0  0  0  0
 14 32  1  0  0  0  0
M  END
