  ETHYL GLUTARATE.mol	818-38-2
  NIST    07291423033D 1   1.00000  -653.52596
Copyright by the U.S. Sec. Commerce on behalf of U.S.A. All rights reserved.
 29 28  0  0  0  0  0  0  0  0999 V2000
   69.9074   30.0346   -0.1950 C    0  0  0  0  0  0  0  0  0  0  0  0
   68.6165   29.2569   -0.3736 C    0  0  0  0  0  0  0  0  0  0  0  0
   68.8776   27.9427   -0.5687 O    0  0  0  0  0  0  0  0  0  0  0  0
   67.5015   29.7315   -0.3496 O    0  0  0  0  0  0  0  0  0  0  0  0
   69.6793   31.5349   -0.0052 C    0  0  0  0  0  0  0  0  0  0  0  0
   67.7335   27.0734   -0.7474 C    0  0  0  0  0  0  0  0  0  0  0  0
   70.9967   32.2888    0.1835 C    0  0  0  0  0  0  0  0  0  0  0  0
   67.1718   26.6127    0.5893 C    0  0  0  0  0  0  0  0  0  0  0  0
   70.8028   33.7818    0.3745 C    0  0  0  0  0  0  0  0  0  0  0  0
   71.9961   34.3964    0.5520 O    0  0  0  0  0  0  0  0  0  0  0  0
   69.7360   34.3572    0.3746 O    0  0  0  0  0  0  0  0  0  0  0  0
   71.9643   35.8307    0.7481 C    0  0  0  0  0  0  0  0  0  0  0  0
   71.9521   36.5730   -0.5797 C    0  0  0  0  0  0  0  0  0  0  0  0
   70.4410   29.6004    0.6618 H    0  0  0  0  0  0  0  0  0  0  0  0
   70.5449   29.8325   -1.0663 H    0  0  0  0  0  0  0  0  0  0  0  0
   69.1392   31.9410   -0.8663 H    0  0  0  0  0  0  0  0  0  0  0  0
   69.0269   31.7054    0.8568 H    0  0  0  0  0  0  0  0  0  0  0  0
   66.9771   27.6020   -1.3328 H    0  0  0  0  0  0  0  0  0  0  0  0
   68.1212   26.2334   -1.3294 H    0  0  0  0  0  0  0  0  0  0  0  0
   71.5542   31.9099    1.0509 H    0  0  0  0  0  0  0  0  0  0  0  0
   71.6661   32.1468   -0.6760 H    0  0  0  0  0  0  0  0  0  0  0  0
   66.3574   25.8977    0.4246 H    0  0  0  0  0  0  0  0  0  0  0  0
   67.9452   26.1205    1.1883 H    0  0  0  0  0  0  0  0  0  0  0  0
   66.7735   27.4615    1.1523 H    0  0  0  0  0  0  0  0  0  0  0  0
   71.0888   36.0845    1.3508 H    0  0  0  0  0  0  0  0  0  0  0  0
   72.8719   36.0453    1.3181 H    0  0  0  0  0  0  0  0  0  0  0  0
   72.0084   37.6534   -0.4029 H    0  0  0  0  0  0  0  0  0  0  0  0
   72.8078   36.2810   -1.1974 H    0  0  0  0  0  0  0  0  0  0  0  0
   71.0300   36.3640   -1.1295 H    0  0  0  0  0  0  0  0  0  0  0  0
  1  2  1  0
  1  5  1  0
  2  3  1  0
  2  4  2  0
  3  6  1  0
  5  7  1  0
  6  8  1  0
  7  9  1  0
  9 10  1  0
  9 11  2  0
 10 12  1  0
 12 13  1  0
  1 14  1  0
  1 15  1  0
  5 16  1  0
  5 17  1  0
  6 18  1  0
  6 19  1  0
  7 20  1  0
  7 21  1  0
  8 22  1  0
  8 23  1  0
  8 24  1  0
 12 25  1  0
 12 26  1  0
 13 27  1  0
 13 28  1  0
 13 29  1  0
M  END
