  ETHYL VINYL ETHER.mol	109-92-2
  NIST    06301516543D 1   1.00000  -232.43073
Copyright by the U.S. Sec. Commerce on behalf of U.S.A. All rights reserved.
 13 12  0  0  0  0  0  0  0  0999 V2000
    3.7790    1.8068    1.2773 C    0  0  0  0  0  0  0  0  0  0  0  0
    3.0109    0.9308    0.4452 O    0  0  0  0  0  0  0  0  0  0  0  0
    1.7264    0.6639    0.7970 C    0  0  0  0  0  0  0  0  0  0  0  0
    4.3652    1.0918    2.4904 C    0  0  0  0  0  0  0  0  0  0  0  0
    1.0192    1.1092    1.8409 C    0  0  0  0  0  0  0  0  0  0  0  0
    3.1655    2.6679    1.5723 H    0  0  0  0  0  0  0  0  0  0  0  0
    4.5789    2.1727    0.6266 H    0  0  0  0  0  0  0  0  0  0  0  0
    1.2886   -0.0074    0.0622 H    0  0  0  0  0  0  0  0  0  0  0  0
    4.9820    1.7861    3.0728 H    0  0  0  0  0  0  0  0  0  0  0  0
    3.5802    0.6986    3.1424 H    0  0  0  0  0  0  0  0  0  0  0  0
    4.9959    0.2561    2.1705 H    0  0  0  0  0  0  0  0  0  0  0  0
    1.4129    1.7695    2.6048 H    0  0  0  0  0  0  0  0  0  0  0  0
   -0.0143    0.7981    1.9408 H    0  0  0  0  0  0  0  0  0  0  0  0
  1  2  1  0  0  0  0
  1  4  1  0  0  0  0
  1  6  1  0  0  0  0
  1  7  1  0  0  0  0
  2  3  1  0  0  0  0
  3  5  2  0  0  0  0
  3  8  1  0  0  0  0
  4  9  1  0  0  0  0
  4 10  1  0  0  0  0
  4 11  1  0  0  0  0
  5 12  1  0  0  0  0
  5 13  1  0  0  0  0
M  END
