  ETHYL SUCCINATE.mol	123-25-1
  NIST    06301522273D 1   1.00000  -614.21372
Copyright by the U.S. Sec. Commerce on behalf of U.S.A. All rights reserved.
 26 25  0  0  0  0  0  0  0  0999 V2000
    5.5219    2.3435    1.9253 C    0  0  0  0  0  0  0  0  0  0  0  0
    4.2543    1.7292    1.3654 C    0  0  0  0  0  0  0  0  0  0  0  0
    3.1603    2.2955    1.9170 O    0  0  0  0  0  0  0  0  0  0  0  0
    4.2082    0.8600    0.5199 O    0  0  0  0  0  0  0  0  0  0  0  0
    6.7588    1.5115    1.5963 C    0  0  0  0  0  0  0  0  0  0  0  0
    1.8848    1.8226    1.4240 C    0  0  0  0  0  0  0  0  0  0  0  0
    8.0451    2.2679    1.8622 C    0  0  0  0  0  0  0  0  0  0  0  0
    0.8005    2.5910    2.1557 C    0  0  0  0  0  0  0  0  0  0  0  0
    9.1050    1.4323    1.8542 O    0  0  0  0  0  0  0  0  0  0  0  0
    8.1332    3.4651    2.0394 O    0  0  0  0  0  0  0  0  0  0  0  0
   10.3997    2.0484    2.0491 C    0  0  0  0  0  0  0  0  0  0  0  0
   11.4427    0.9491    1.9772 C    0  0  0  0  0  0  0  0  0  0  0  0
    5.4044    2.4881    3.0043 H    0  0  0  0  0  0  0  0  0  0  0  0
    5.6294    3.3512    1.5055 H    0  0  0  0  0  0  0  0  0  0  0  0
    6.7751    0.5695    2.1545 H    0  0  0  0  0  0  0  0  0  0  0  0
    6.7421    1.2232    0.5380 H    0  0  0  0  0  0  0  0  0  0  0  0
    1.8438    1.9818    0.3416 H    0  0  0  0  0  0  0  0  0  0  0  0
    1.8170    0.7443    1.6013 H    0  0  0  0  0  0  0  0  0  0  0  0
   -0.1856    2.2612    1.8108 H    0  0  0  0  0  0  0  0  0  0  0  0
    0.8892    3.6661    1.9693 H    0  0  0  0  0  0  0  0  0  0  0  0
    0.8620    2.4225    3.2356 H    0  0  0  0  0  0  0  0  0  0  0  0
   10.5484    2.8089    1.2758 H    0  0  0  0  0  0  0  0  0  0  0  0
   10.4045    2.5581    3.0181 H    0  0  0  0  0  0  0  0  0  0  0  0
   11.4182    0.4496    1.0035 H    0  0  0  0  0  0  0  0  0  0  0  0
   11.2733    0.1968    2.7543 H    0  0  0  0  0  0  0  0  0  0  0  0
   12.4416    1.3750    2.1215 H    0  0  0  0  0  0  0  0  0  0  0  0
  1  2  1  0  0  0  0
  1  5  1  0  0  0  0
  1 13  1  0  0  0  0
  1 14  1  0  0  0  0
  2  3  1  0  0  0  0
  2  4  2  0  0  0  0
  3  6  1  0  0  0  0
  5  7  1  0  0  0  0
  5 15  1  0  0  0  0
  5 16  1  0  0  0  0
  6  8  1  0  0  0  0
  6 17  1  0  0  0  0
  6 18  1  0  0  0  0
  7  9  1  0  0  0  0
  7 10  2  0  0  0  0
  8 19  1  0  0  0  0
  8 20  1  0  0  0  0
  8 21  1  0  0  0  0
  9 11  1  0  0  0  0
 11 12  1  0  0  0  0
 11 22  1  0  0  0  0
 11 23  1  0  0  0  0
 12 24  1  0  0  0  0
 12 25  1  0  0  0  0
 12 26  1  0  0  0  0
M  END
