  ETHYL TRIMETHYLACETATE.mol	3938-95-2
  NIST    07071510243D 1   1.00000  -425.64892
Copyright by the U.S. Sec. Commerce on behalf of U.S.A. All rights reserved.
 23 22  0  0  0  0  0  0  0  0999 V2000
    0.3699   19.8500   -0.9656 C    0  0  0  0  0  0  0  0  0  0  0  0
    1.2522   20.8735   -0.2165 C    0  0  0  0  0  0  0  0  0  0  0  0
    0.6926   22.2822   -0.4529 C    0  0  0  0  0  0  0  0  0  0  0  0
    1.2295   20.5713    1.2984 C    0  0  0  0  0  0  0  0  0  0  0  0
    2.6935   20.8188   -0.7463 C    0  0  0  0  0  0  0  0  0  0  0  0
    1.2933   23.1971   -0.9766 O    0  0  0  0  0  0  0  0  0  0  0  0
   -0.5822   22.3907   -0.0043 O    0  0  0  0  0  0  0  0  0  0  0  0
   -1.2255   23.6757   -0.1752 C    0  0  0  0  0  0  0  0  0  0  0  0
   -0.8998   24.6172    0.9747 C    0  0  0  0  0  0  0  0  0  0  0  0
    0.7698   18.8397   -0.8197 H    0  0  0  0  0  0  0  0  0  0  0  0
    0.3562   20.0526   -2.0429 H    0  0  0  0  0  0  0  0  0  0  0  0
   -0.6605   19.8696   -0.5999 H    0  0  0  0  0  0  0  0  0  0  0  0
    1.8414   21.2906    1.8553 H    0  0  0  0  0  0  0  0  0  0  0  0
    1.6383   19.5708    1.4822 H    0  0  0  0  0  0  0  0  0  0  0  0
    0.2114   20.6063    1.6961 H    0  0  0  0  0  0  0  0  0  0  0  0
    2.7314   21.0434   -1.8165 H    0  0  0  0  0  0  0  0  0  0  0  0
    3.3318   21.5457   -0.2349 H    0  0  0  0  0  0  0  0  0  0  0  0
    3.1104   19.8178   -0.5867 H    0  0  0  0  0  0  0  0  0  0  0  0
   -0.9151   24.1000   -1.1330 H    0  0  0  0  0  0  0  0  0  0  0  0
   -2.2926   23.4412   -0.2101 H    0  0  0  0  0  0  0  0  0  0  0  0
   -1.4592   25.5530    0.8600 H    0  0  0  0  0  0  0  0  0  0  0  0
   -1.1738   24.1686    1.9353 H    0  0  0  0  0  0  0  0  0  0  0  0
    0.1675   24.8552    0.9858 H    0  0  0  0  0  0  0  0  0  0  0  0
  1  2  1  0  0  0  0
  1 10  1  0  0  0  0
  1 11  1  0  0  0  0
  1 12  1  0  0  0  0
  2  3  1  0  0  0  0
  2  4  1  0  0  0  0
  2  5  1  0  0  0  0
  3  6  2  0  0  0  0
  3  7  1  0  0  0  0
  4 13  1  0  0  0  0
  4 14  1  0  0  0  0
  4 15  1  0  0  0  0
  5 16  1  0  0  0  0
  5 17  1  0  0  0  0
  5 18  1  0  0  0  0
  7  8  1  0  0  0  0
  8  9  1  0  0  0  0
  8 19  1  0  0  0  0
  8 20  1  0  0  0  0
  9 21  1  0  0  0  0
  9 22  1  0  0  0  0
  9 23  1  0  0  0  0
M  END
