
 OpenBabel11211916533D

 19 18  0  0  0  0  0  0  0  0999 V2000
    0.5164   -1.7462    1.1843 C   0  0  0  0  0  0  0  0  0  0  0  0
    2.0142   -1.6723    0.8453 C   0  0  0  0  0  0  0  0  0  0  0  0
    0.3290   -1.6227    2.7024 C   0  0  0  0  0  0  0  0  0  0  0  0
   -0.2866   -0.6859    0.4443 C   0  0  0  0  0  0  0  0  0  0  0  0
    0.2835    0.1228   -0.2770 O   0  0  0  0  0  0  0  0  0  0  0  0
   -1.7952   -0.6505    0.5725 C   0  0  0  0  0  0  0  0  0  0  0  0
   -2.4462    0.4457   -0.2716 C   0  0  0  0  0  0  0  0  0  0  0  0
    0.1483   -2.7449    0.8624 H   0  0  0  0  0  0  0  0  0  0  0  0
    2.1668   -1.8037   -0.2474 H   0  0  0  0  0  0  0  0  0  0  0  0
    2.4410   -0.6934    1.1538 H   0  0  0  0  0  0  0  0  0  0  0  0
    2.5675   -2.4818    1.3677 H   0  0  0  0  0  0  0  0  0  0  0  0
    0.6771   -0.6296    3.0598 H   0  0  0  0  0  0  0  0  0  0  0  0
   -0.7357   -1.7553    2.9839 H   0  0  0  0  0  0  0  0  0  0  0  0
    0.9085   -2.4138    3.2248 H   0  0  0  0  0  0  0  0  0  0  0  0
   -2.2025   -1.6325    0.2499 H   0  0  0  0  0  0  0  0  0  0  0  0
   -2.0749   -0.4789    1.6323 H   0  0  0  0  0  0  0  0  0  0  0  0
   -3.5480    0.4143   -0.1368 H   0  0  0  0  0  0  0  0  0  0  0  0
   -2.0789    1.4456    0.0441 H   0  0  0  0  0  0  0  0  0  0  0  0
   -2.2167    0.2922   -1.3477 H   0  0  0  0  0  0  0  0  0  0  0  0
  1  2  1  0  0  0  0
  1  3  1  0  0  0  0
  1  4  1  0  0  0  0
  1  8  1  0  0  0  0
  2  9  1  0  0  0  0
  2 10  1  0  0  0  0
  2 11  1  0  0  0  0
  3 12  1  0  0  0  0
  3 13  1  0  0  0  0
  3 14  1  0  0  0  0
  4  5  2  0  0  0  0
  4  6  1  0  0  0  0
  6  7  1  0  0  0  0
  6 15  1  0  0  0  0
  6 16  1  0  0  0  0
  7 17  1  0  0  0  0
  7 18  1  0  0  0  0
  7 19  1  0  0  0  0
M  END
