  ETHYL CARBAMATE.mol	51-79-6
  NIST    07021515343D 1   1.00000  -323.75638
Copyright by the U.S. Sec. Commerce on behalf of U.S.A. All rights reserved.
 13 12  0  0  0  0  0  0  0  0999 V2000
    2.9918    1.8664    0.9526 O    0  0  0  0  0  0  0  0  0  0  0  0
    1.6507    2.0687    1.0297 C    0  0  0  0  0  0  0  0  0  0  0  0
    3.7973    3.0592    1.0517 C    0  0  0  0  0  0  0  0  0  0  0  0
    0.9919    0.8669    0.9859 N    0  0  0  0  0  0  0  0  0  0  0  0
    1.1179    3.1541    1.1543 O    0  0  0  0  0  0  0  0  0  0  0  0
    5.2505    2.6344    0.9495 C    0  0  0  0  0  0  0  0  0  0  0  0
    3.5826    3.5556    2.0036 H    0  0  0  0  0  0  0  0  0  0  0  0
    3.5150    3.7483    0.2491 H    0  0  0  0  0  0  0  0  0  0  0  0
    0.0001    0.9165    0.8089 H    0  0  0  0  0  0  0  0  0  0  0  0
    1.4864    0.0567    0.6420 H    0  0  0  0  0  0  0  0  0  0  0  0
    5.5135    1.9428    1.7564 H    0  0  0  0  0  0  0  0  0  0  0  0
    5.4478    2.1391   -0.0068 H    0  0  0  0  0  0  0  0  0  0  0  0
    5.9006    3.5131    1.0229 H    0  0  0  0  0  0  0  0  0  0  0  0
  1  2  1  0  0  0  0
  1  3  1  0  0  0  0
  2  4  1  0  0  0  0
  2  5  2  0  0  0  0
  3  6  1  0  0  0  0
  3  7  1  0  0  0  0
  3  8  1  0  0  0  0
  4  9  1  0  0  0  0
  4 10  1  0  0  0  0
  6 11  1  0  0  0  0
  6 12  1  0  0  0  0
  6 13  1  0  0  0  0
M  END
