  ETHYLENE GLYCOL DIETHYL ETHER.mol	629-14-1
  NIST    07221402223D 1   1.00000  -387.49439
Copyright by the U.S. Sec. Commerce on behalf of U.S.A. All rights reserved.
 22 21  0  0  0  0  0  0  0  0999 V2000
   70.0307    9.9368   -0.0063 C    0  0  0  0  0  0  0  0  0  0  0  0
   68.6379    9.3236   -0.0064 C    0  0  0  0  0  0  0  0  0  0  0  0
   68.7886    7.9184   -0.0065 O    0  0  0  0  0  0  0  0  0  0  0  0
   69.8801   11.3420   -0.0066 O    0  0  0  0  0  0  0  0  0  0  0  0
   67.5530    7.2233   -0.0068 C    0  0  0  0  0  0  0  0  0  0  0  0
   71.1156   12.0371   -0.0067 C    0  0  0  0  0  0  0  0  0  0  0  0
   67.8398    5.7307   -0.0073 C    0  0  0  0  0  0  0  0  0  0  0  0
   70.8289   13.5297   -0.0074 C    0  0  0  0  0  0  0  0  0  0  0  0
   70.5861    9.5953    0.8826 H    0  0  0  0  0  0  0  0  0  0  0  0
   70.5864    9.5951   -0.8950 H    0  0  0  0  0  0  0  0  0  0  0  0
   68.0824    9.6652   -0.8952 H    0  0  0  0  0  0  0  0  0  0  0  0
   68.0824    9.6651    0.8824 H    0  0  0  0  0  0  0  0  0  0  0  0
   66.9600    7.5044    0.8806 H    0  0  0  0  0  0  0  0  0  0  0  0
   66.9599    7.5051   -0.8938 H    0  0  0  0  0  0  0  0  0  0  0  0
   71.7085   11.7561    0.8809 H    0  0  0  0  0  0  0  0  0  0  0  0
   71.7089   11.7552   -0.8936 H    0  0  0  0  0  0  0  0  0  0  0  0
   66.9038    5.1613   -0.0068 H    0  0  0  0  0  0  0  0  0  0  0  0
   68.4166    5.4511   -0.8948 H    0  0  0  0  0  0  0  0  0  0  0  0
   68.4178    5.4508    0.8793 H    0  0  0  0  0  0  0  0  0  0  0  0
   71.7649   14.0991   -0.0067 H    0  0  0  0  0  0  0  0  0  0  0  0
   70.2522   13.8092   -0.8950 H    0  0  0  0  0  0  0  0  0  0  0  0
   70.2507   13.8097    0.8791 H    0  0  0  0  0  0  0  0  0  0  0  0
  1  2  1  0
  1  4  1  0
  2  3  1  0
  3  5  1  0
  4  6  1  0
  5  7  1  0
  6  8  1  0
  1  9  1  0
  1 10  1  0
  2 11  1  0
  2 12  1  0
  5 13  1  0
  5 14  1  0
  6 15  1  0
  6 16  1  0
  7 17  1  0
  7 18  1  0
  7 19  1  0
  8 20  1  0
  8 21  1  0
  8 22  1  0
M  END
