  ETHYLCYCLOPROPANE.mol	1191-96-4
  NIST    06301516593D 1   1.00000  -196.52593
Copyright by the U.S. Sec. Commerce on behalf of U.S.A. All rights reserved.
 15 15  0  0  0  0  0  0  0  0999 V2000
    2.0620    0.9586    1.0525 C    0  0  0  0  0  0  0  0  0  0  0  0
    0.7402    1.3480    1.7254 C    0  0  0  0  0  0  0  0  0  0  0  0
    3.1387    2.0169    1.1998 C    0  0  0  0  0  0  0  0  0  0  0  0
    3.9920    2.0732    2.4452 C    0  0  0  0  0  0  0  0  0  0  0  0
    4.6000    1.6483    1.1285 C    0  0  0  0  0  0  0  0  0  0  0  0
    2.4272    0.0139    1.4797 H    0  0  0  0  0  0  0  0  0  0  0  0
    1.8872    0.7619   -0.0150 H    0  0  0  0  0  0  0  0  0  0  0  0
   -0.0175    0.5659    1.6001 H    0  0  0  0  0  0  0  0  0  0  0  0
    0.3363    2.2737    1.2972 H    0  0  0  0  0  0  0  0  0  0  0  0
    0.8799    1.5149    2.7998 H    0  0  0  0  0  0  0  0  0  0  0  0
    2.8746    2.9828    0.7684 H    0  0  0  0  0  0  0  0  0  0  0  0
    3.8362    1.3075    3.2020 H    0  0  0  0  0  0  0  0  0  0  0  0
    4.2627    3.0445    2.8507 H    0  0  0  0  0  0  0  0  0  0  0  0
    5.2859    2.3295    0.6317 H    0  0  0  0  0  0  0  0  0  0  0  0
    4.8524    0.5980    1.0014 H    0  0  0  0  0  0  0  0  0  0  0  0
  1  2  1  0  0  0  0
  1  3  1  0  0  0  0
  1  6  1  0  0  0  0
  1  7  1  0  0  0  0
  2  8  1  0  0  0  0
  2  9  1  0  0  0  0
  2 10  1  0  0  0  0
  3  4  1  0  0  0  0
  3 11  1  0  0  0  0
  4  5  1  0  0  0  0
  4 12  1  0  0  0  0
  4 13  1  0  0  0  0
  5  3  1  0  0  0  0
  5 14  1  0  0  0  0
  5 15  1  0  0  0  0
M  END
