
 OpenBabel05291911193D

 10  9  0  0  0  0  0  0  0  0999 V2000
   -0.3620    1.5530    1.4135 C   0  0  0  0  0  0  0  0  0  0  0  0
    0.9446    1.0502    1.4074 O   0  0  0  0  0  0  0  0  0  0  0  0
   -0.7605    1.9439   -0.0037 C   0  0  0  0  0  0  0  0  0  0  0  0
   -2.0672    2.4466    0.0024 O   0  0  0  0  0  0  0  0  0  0  0  0
   -0.4163    2.4540    2.0650 H   0  0  0  0  0  0  0  0  0  0  0  0
   -1.0645    0.7728    1.7836 H   0  0  0  0  0  0  0  0  0  0  0  0
    1.1518    0.8128    2.3484 H   0  0  0  0  0  0  0  0  0  0  0  0
   -0.0581    2.7241   -0.3738 H   0  0  0  0  0  0  0  0  0  0  0  0
   -0.7063    1.0429   -0.6552 H   0  0  0  0  0  0  0  0  0  0  0  0
   -2.2744    2.6841   -0.9387 H   0  0  0  0  0  0  0  0  0  0  0  0
  1  2  1  0  0  0  0
  1  3  1  0  0  0  0
  1  5  1  0  0  0  0
  1  6  1  0  0  0  0
  2  7  1  0  0  0  0
  3  4  1  0  0  0  0
  3  8  1  0  0  0  0
  3  9  1  0  0  0  0
  4 10  1  0  0  0  0
M  END
