
 OpenBabel09131614353D

 29 30  0  0  1  0  0  0  0  0999 V2000
   -1.1676    0.5842   -0.3029 C   0  0  0  0  0  0  0  0  0  0  0  0
   -2.2680    1.1383    0.6774 C   0  0  1  0  0  0  0  0  0  0  0  0
   -0.9963    1.5154   -1.5219 C   0  0  0  0  0  0  0  0  0  0  0  0
   -1.9143    1.5643   -2.1397 H   0  0  0  0  0  0  0  0  0  0  0  0
   -0.1922    1.1342   -2.1876 H   0  0  0  0  0  0  0  0  0  0  0  0
   -0.7268    2.5432   -1.1962 H   0  0  0  0  0  0  0  0  0  0  0  0
    0.2035    0.4970    0.4008 C   0  0  0  0  0  0  0  0  0  0  0  0
    0.9792    0.1398   -0.3105 H   0  0  0  0  0  0  0  0  0  0  0  0
    0.1946   -0.2259    1.2399 H   0  0  0  0  0  0  0  0  0  0  0  0
    0.5108    1.4927    0.7870 H   0  0  0  0  0  0  0  0  0  0  0  0
   -3.6293    1.1528   -0.0643 C   0  0  0  0  0  0  0  0  0  0  0  0
   -3.8936   -0.2431   -0.6776 C   0  0  0  0  0  0  0  0  0  0  0  0
   -3.6787    1.9316   -0.8532 H   0  0  0  0  0  0  0  0  0  0  0  0
   -4.4349    1.4134    0.6574 H   0  0  0  0  0  0  0  0  0  0  0  0
   -2.7553   -1.2155   -0.2650 C   0  0  2  0  0  0  0  0  0  0  0  0
   -3.9002   -0.1634   -1.7871 H   0  0  0  0  0  0  0  0  0  0  0  0
   -4.8917   -0.6128   -0.3549 H   0  0  0  0  0  0  0  0  0  0  0  0
   -3.0103   -2.6108   -0.8447 C   0  0  0  0  0  0  0  0  0  0  0  0
   -3.9695   -3.0236   -0.4645 H   0  0  0  0  0  0  0  0  0  0  0  0
   -2.1880   -3.3015   -0.5600 H   0  0  0  0  0  0  0  0  0  0  0  0
   -3.0581   -2.5634   -1.9537 H   0  0  0  0  0  0  0  0  0  0  0  0
   -2.4342    0.1387    1.8507 C   0  0  0  0  0  0  0  0  0  0  0  0
   -2.6689   -1.2820    1.2840 C   0  0  0  0  0  0  0  0  0  0  0  0
   -3.3006    0.4505    2.4752 H   0  0  0  0  0  0  0  0  0  0  0  0
   -1.5629    0.1362    2.5377 H   0  0  0  0  0  0  0  0  0  0  0  0
   -2.0321    2.1526    1.0673 H   0  0  0  0  0  0  0  0  0  0  0  0
   -3.5886   -1.7184    1.7321 H   0  0  0  0  0  0  0  0  0  0  0  0
   -1.8112   -1.9350    1.5584 H   0  0  0  0  0  0  0  0  0  0  0  0
   -1.5127   -0.7258   -0.7814 O   0  0  0  0  0  0  0  0  0  0  0  0
  1  2  1  0  0  0  0
  2 11  1  0  0  0  0
  2 26  1  1  0  0  0
  3  1  1  0  0  0  0
  3  4  1  0  0  0  0
  3  5  1  0  0  0  0
  3  6  1  0  0  0  0
  7  1  1  0  0  0  0
  7  8  1  0  0  0  0
  7  9  1  0  0  0  0
  7 10  1  0  0  0  0
 11 12  1  0  0  0  0
 11 13  1  0  0  0  0
 11 14  1  0  0  0  0
 12 15  1  0  0  0  0
 12 16  1  0  0  0  0
 12 17  1  0  0  0  0
 15 18  1  6  0  0  0
 15 29  1  0  0  0  0
 18 19  1  0  0  0  0
 18 20  1  0  0  0  0
 18 21  1  0  0  0  0
 22 23  1  0  0  0  0
 22  2  1  0  0  0  0
 22 24  1  0  0  0  0
 22 25  1  0  0  0  0
 23 15  1  0  0  0  0
 23 27  1  0  0  0  0
 23 28  1  0  0  0  0
 29  1  1  0  0  0  0
M  END
