  FORMANILIDE.mol	103-70-8
  NIST    07011416403D 1   1.00000  -400.94062
Copyright by the U.S. Sec. Commerce on behalf of U.S.A. All rights reserved.
 16 16  0  0  0  0  0  0  0  0999 V2000
    6.3198    1.7998   -0.6688 C    0  0  0  0  0  0  0  0  0  0  0  0
    6.8071    0.5674   -0.2107 C    0  0  0  0  0  0  0  0  0  0  0  0
    4.9494    2.0034   -0.8126 C    0  0  0  0  0  0  0  0  0  0  0  0
    4.0473    0.9789   -0.5188 C    0  0  0  0  0  0  0  0  0  0  0  0
    4.5324   -0.2464   -0.0599 C    0  0  0  0  0  0  0  0  0  0  0  0
    5.9008   -0.4537    0.1112 C    0  0  0  0  0  0  0  0  0  0  0  0
    8.2002    0.3968   -0.0664 N    0  0  0  0  0  0  0  0  0  0  0  0
    8.9164   -0.7693   -0.1797 C    0  0  0  0  0  0  0  0  0  0  0  0
   10.1250   -0.8332   -0.0575 O    0  0  0  0  0  0  0  0  0  0  0  0
    7.0203    2.5923   -0.9210 H    0  0  0  0  0  0  0  0  0  0  0  0
    4.5879    2.9654   -1.1655 H    0  0  0  0  0  0  0  0  0  0  0  0
    2.9795    1.1368   -0.6375 H    0  0  0  0  0  0  0  0  0  0  0  0
    3.8412   -1.0468    0.1896 H    0  0  0  0  0  0  0  0  0  0  0  0
    6.2570   -1.3948    0.5170 H    0  0  0  0  0  0  0  0  0  0  0  0
    8.7720    1.2284    0.0341 H    0  0  0  0  0  0  0  0  0  0  0  0
    8.2831   -1.6450   -0.4054 H    0  0  0  0  0  0  0  0  0  0  0  0
  2  7  1  0
  7  8  1  0
  8  9  2  0
  1  2  1  0
  2  6  2  0
  6  5  1  0
  5  4  2  0
  4  3  1  0
  1  3  2  0
  1 10  1  0
  3 11  1  0
  4 12  1  0
  5 13  1  0
  6 14  1  0
  7 15  1  0
  8 16  1  0
M  END
