
 OpenBabel08211711023D

 24 24  0  0  0  0  0  0  0  0999 V2000
    2.4952    2.9811   -0.7004 C   0  0  1  0  0  0  0  0  0  0  0  0
    3.1705    1.6223   -0.4696 C   0  0  2  0  0  0  0  0  0  0  0  0
    2.1644    0.9862    0.4576 C   0  0  1  0  0  0  0  0  0  0  0  0
    0.8706    1.4098   -0.2623 C   0  0  2  0  0  0  0  0  0  0  0  0
    1.0939    2.7346   -0.7326 O   0  0  0  0  0  0  0  0  0  0  0  0
    2.3112   -0.4014    0.6442 O   0  0  0  0  0  0  0  0  0  0  0  0
    4.4939    1.6781    0.0047 O   0  0  0  0  0  0  0  0  0  0  0  0
    2.7733    4.0489    0.3768 C   0  0  0  0  0  0  0  0  0  0  0  0
   -0.3452    1.4035    0.6843 C   0  0  0  0  0  0  0  0  0  0  0  0
    0.6230    0.6015   -1.3923 O   0  0  0  0  0  0  0  0  0  0  0  0
   -0.5746    0.1152    1.1864 O   0  0  0  0  0  0  0  0  0  0  0  0
    2.5715   -0.8106   -0.2213 H   0  0  0  0  0  0  0  0  0  0  0  0
    4.4695    1.8186    0.9866 H   0  0  0  0  0  0  0  0  0  0  0  0
   -1.2388    1.7505    0.1186 H   0  0  0  0  0  0  0  0  0  0  0  0
   -0.1522    2.1031    1.5288 H   0  0  0  0  0  0  0  0  0  0  0  0
    0.3983   -0.3137   -1.0823 H   0  0  0  0  0  0  0  0  0  0  0  0
   -1.3685    0.1874    1.7774 H   0  0  0  0  0  0  0  0  0  0  0  0
    2.2241    1.4843    1.4500 H   0  0  0  0  0  0  0  0  0  0  0  0
    3.1601    1.0603   -1.4323 H   0  0  0  0  0  0  0  0  0  0  0  0
    2.4499    3.6997    1.3804 H   0  0  0  0  0  0  0  0  0  0  0  0
    2.1890    4.9588    0.1125 H   0  0  0  0  0  0  0  0  0  0  0  0
    4.1354    4.3758    0.3964 O   0  0  0  0  0  0  0  0  0  0  0  0
    4.2397    5.0843    1.0834 H   0  0  0  0  0  0  0  0  0  0  0  0
    2.8424    3.3912   -1.6741 H   0  0  0  0  0  0  0  0  0  0  0  0
  1  8  1  0  0  0  0
  1 24  1  6  0  0  0
  2  7  1  0  0  0  0
  2  1  1  0  0  0  0
  2 19  1  6  0  0  0
  3  6  1  0  0  0  0
  3  2  1  0  0  0  0
  3 18  1  1  0  0  0
  4  9  1  1  0  0  0
  4 10  1  0  0  0  0
  4  3  1  0  0  0  0
  5  4  1  0  0  0  0
  5  1  1  0  0  0  0
  9 11  1  0  0  0  0
 12  6  1  0  0  0  0
 13  7  1  0  0  0  0
 14  9  1  0  0  0  0
 15  9  1  0  0  0  0
 16 10  1  0  0  0  0
 17 11  1  0  0  0  0
 20  8  1  0  0  0  0
 21  8  1  0  0  0  0
 22  8  1  0  0  0  0
 23 22  1  0  0  0  0
M  END
