  FUMARIC ACID.mol	110-17-8
  NIST    06301516423D 1   1.00000  -455.73082
Copyright by the U.S. Sec. Commerce on behalf of U.S.A. All rights reserved.
 12 11  0  0  0  0  0  0  0  0999 V2000
    2.9075    1.3499    0.5267 C    0  0  0  0  0  0  0  0  0  0  0  0
    3.5706    2.4493    0.9015 C    0  0  0  0  0  0  0  0  0  0  0  0
    1.4583    1.2060    0.8150 C    0  0  0  0  0  0  0  0  0  0  0  0
    5.0198    2.5932    0.6131 C    0  0  0  0  0  0  0  0  0  0  0  0
    0.9839    0.0242    0.3533 O    0  0  0  0  0  0  0  0  0  0  0  0
    0.7653    2.0213    1.3871 O    0  0  0  0  0  0  0  0  0  0  0  0
    5.4940    3.7755    1.0738 O    0  0  0  0  0  0  0  0  0  0  0  0
    5.7132    1.7772    0.0425 O    0  0  0  0  0  0  0  0  0  0  0  0
    3.4137    0.5432    0.0058 H    0  0  0  0  0  0  0  0  0  0  0  0
    3.0645    3.2560    1.4224 H    0  0  0  0  0  0  0  0  0  0  0  0
    0.0347    0.0038    0.5787 H    0  0  0  0  0  0  0  0  0  0  0  0
    6.4432    3.7957    0.8488 H    0  0  0  0  0  0  0  0  0  0  0  0
  1  2  2  0  0  0  0
  1  3  1  0  0  0  0
  1  9  1  0  0  0  0
  2  4  1  0  0  0  0
  2 10  1  0  0  0  0
  3  5  1  0  0  0  0
  3  6  2  0  0  0  0
  4  7  1  0  0  0  0
  4  8  2  0  0  0  0
  5 11  1  0  0  0  0
  7 12  1  0  0  0  0
M  END
