  FURFURAL.mol	98-01-1
  NIST    06171422073D 1   1.00000  -343.34635
Copyright by the U.S. Sec. Commerce on behalf of U.S.A. All rights reserved.
 11 11  0  0  0  0  0  0  0  0999 V2000
   -5.6649   -0.5052   -0.1930 C    0  0  0  0  0  0  0  0  0  0  0  0
   -5.0477   -1.5523   -0.8247 O    0  0  0  0  0  0  0  0  0  0  0  0
   -7.0243   -0.5863   -0.3838 C    0  0  0  0  0  0  0  0  0  0  0  0
   -4.8571    0.4648    0.5314 C    0  0  0  0  0  0  0  0  0  0  0  0
   -6.0200   -2.2861   -1.4090 C    0  0  0  0  0  0  0  0  0  0  0  0
   -7.2551   -1.7458   -1.1757 C    0  0  0  0  0  0  0  0  0  0  0  0
   -3.6446    0.4358    0.6343 O    0  0  0  0  0  0  0  0  0  0  0  0
   -7.7619    0.1053    0.0003 H    0  0  0  0  0  0  0  0  0  0  0  0
   -5.4654    1.2674    1.0022 H    0  0  0  0  0  0  0  0  0  0  0  0
   -5.6870   -3.1577   -1.9530 H    0  0  0  0  0  0  0  0  0  0  0  0
   -8.2031   -2.1292   -1.5254 H    0  0  0  0  0  0  0  0  0  0  0  0
  1  4  1  0
  4  7  2  0
  1  3  2  0
  3  6  1  0
  6  5  2  0
  5  2  1  0
  1  2  1  0
  3  8  1  0
  4  9  1  0
  5 10  1  0
  6 11  1  0
M  END
