  GALLIC ACID.mol	149-91-7
  NIST    06301516093D 1   1.00000  -646.46836
Copyright by the U.S. Sec. Commerce on behalf of U.S.A. All rights reserved.
 18 18  0  0  0  0  0  0  0  0999 V2000
    0.9160    2.3561    0.9868 O    0  0  0  0  0  0  0  0  0  0  0  0
    1.7397    3.3973    0.6999 C    0  0  0  0  0  0  0  0  0  0  0  0
    1.3103    4.5079    0.4594 O    0  0  0  0  0  0  0  0  0  0  0  0
    3.1808    3.0241    0.7171 C    0  0  0  0  0  0  0  0  0  0  0  0
    4.1037    4.0358    0.4236 C    0  0  0  0  0  0  0  0  0  0  0  0
    3.5901    1.7140    0.9998 C    0  0  0  0  0  0  0  0  0  0  0  0
    5.4638    3.7347    0.4292 C    0  0  0  0  0  0  0  0  0  0  0  0
    4.9534    1.4208    1.0048 C    0  0  0  0  0  0  0  0  0  0  0  0
    6.3835    4.6951    0.1415 O    0  0  0  0  0  0  0  0  0  0  0  0
    5.8798    2.4370    0.7480 C    0  0  0  0  0  0  0  0  0  0  0  0
    5.3823    0.1570    1.2712 O    0  0  0  0  0  0  0  0  0  0  0  0
    7.2469    2.1303    0.7340 O    0  0  0  0  0  0  0  0  0  0  0  0
    0.0123    2.7196    0.9450 H    0  0  0  0  0  0  0  0  0  0  0  0
    3.7619    5.0369    0.1903 H    0  0  0  0  0  0  0  0  0  0  0  0
    2.8721    0.9310    1.2075 H    0  0  0  0  0  0  0  0  0  0  0  0
    7.2440    4.2464    0.0597 H    0  0  0  0  0  0  0  0  0  0  0  0
    6.3394    0.1408    1.0906 H    0  0  0  0  0  0  0  0  0  0  0  0
    7.6069    2.2837    1.6253 H    0  0  0  0  0  0  0  0  0  0  0  0
  1  2  1  0  0  0  0
  1 13  1  0  0  0  0
  2  3  2  0  0  0  0
  2  4  1  0  0  0  0
  4  5  2  0  0  0  0
  5  7  1  0  0  0  0
  5 14  1  0  0  0  0
  6  4  1  0  0  0  0
  6 15  1  0  0  0  0
  7  9  1  0  0  0  0
  7 10  2  0  0  0  0
  8  6  2  0  0  0  0
  8 11  1  0  0  0  0
  9 16  1  0  0  0  0
 10  8  1  0  0  0  0
 10 12  1  0  0  0  0
 11 17  1  0  0  0  0
 12 18  1  0  0  0  0
M  END
