
 OpenBabel06031911183D

 24 23  0  0  0  0  0  0  0  0999 V2000
    2.6711   -3.6280    0.4653 O   0  0  0  0  0  0  0  0  0  0  0  0
    1.7467   -3.0288   -0.4000 C   0  0  0  0  0  0  0  0  0  0  0  0
    1.7077   -1.5057   -0.1854 C   0  0  1  0  0  0  0  0  0  0  0  0
    3.0621   -0.8280   -0.5120 C   0  0  1  0  0  0  0  0  0  0  0  0
    2.9938    0.7128   -0.3542 C   0  0  2  0  0  0  0  0  0  0  0  0
    4.2987    1.4081   -0.7996 C   0  0  1  0  0  0  0  0  0  0  0  0
    4.1442    2.9034   -0.7343 C   0  0  0  0  0  0  0  0  0  0  0  0
    4.2575    3.5797   -1.7441 O   0  0  0  0  0  0  0  0  0  0  0  0
    5.3645    1.0206    0.0278 O   0  0  0  0  0  0  0  0  0  0  0  0
    2.7120    1.0512    0.9827 O   0  0  0  0  0  0  0  0  0  0  0  0
    4.0635   -1.3425    0.3326 O   0  0  0  0  0  0  0  0  0  0  0  0
    0.7127   -0.9631   -1.0167 O   0  0  0  0  0  0  0  0  0  0  0  0
    2.6490   -4.5992    0.2626 H   0  0  0  0  0  0  0  0  0  0  0  0
    0.7345   -3.4393   -0.1856 H   0  0  0  0  0  0  0  0  0  0  0  0
    2.0166   -3.2451   -1.4583 H   0  0  0  0  0  0  0  0  0  0  0  0
    1.4613   -1.2988    0.8832 H   0  0  0  0  0  0  0  0  0  0  0  0
    3.2927   -1.0491   -1.5835 H   0  0  0  0  0  0  0  0  0  0  0  0
    2.1926    1.0978   -1.0315 H   0  0  0  0  0  0  0  0  0  0  0  0
    4.5036    1.1016   -1.8535 H   0  0  0  0  0  0  0  0  0  0  0  0
    3.9339    3.3876    0.2142 H   0  0  0  0  0  0  0  0  0  0  0  0
    6.2008    1.1990   -0.4772 H   0  0  0  0  0  0  0  0  0  0  0  0
    1.7331    1.2025    1.0499 H   0  0  0  0  0  0  0  0  0  0  0  0
    4.7748   -1.7273   -0.2436 H   0  0  0  0  0  0  0  0  0  0  0  0
   -0.1534   -1.0715   -0.5432 H   0  0  0  0  0  0  0  0  0  0  0  0
  1  2  1  0  0  0  0
  1 13  1  0  0  0  0
  2  3  1  0  0  0  0
  2 14  1  0  0  0  0
  2 15  1  0  0  0  0
  3  4  1  0  0  0  0
  3 12  1  0  0  0  0
  3 16  1  1  0  0  0
  4 11  1  0  0  0  0
  4 17  1  6  0  0  0
  5 10  1  0  0  0  0
  5  6  1  0  0  0  0
  5  4  1  0  0  0  0
  5 18  1  6  0  0  0
  6  7  1  0  0  0  0
  6  9  1  0  0  0  0
  6 19  1  6  0  0  0
  7  8  2  0  0  0  0
  7 20  1  0  0  0  0
  9 21  1  0  0  0  0
 10 22  1  0  0  0  0
 11 23  1  0  0  0  0
 12 24  1  0  0  0  0
M  END
