
 OpenBabel08211711163D

 19 18  0  0  0  0  0  0  0  0999 V2000
    2.6667    1.7726   -0.1624 C   0  0  0  0  0  0  0  0  0  0  0  0
    3.8812    0.9212    0.2856 C   0  0  2  0  0  0  0  0  0  0  0  0
    5.1917    1.6131   -0.0364 C   0  0  0  0  0  0  0  0  0  0  0  0
    3.8650   -0.3980   -0.3549 N   0  0  0  0  0  0  0  0  0  0  0  0
    1.3094    1.1712    0.2474 C   0  0  0  0  0  0  0  0  0  0  0  0
    5.2093    2.6846   -0.6267 O   0  0  0  0  0  0  0  0  0  0  0  0
    6.3544    1.0416    0.3443 O   0  0  0  0  0  0  0  0  0  0  0  0
    0.1395    2.0470   -0.1211 C   0  0  0  0  0  0  0  0  0  0  0  0
    0.3082    3.1145   -0.6940 O   0  0  0  0  0  0  0  0  0  0  0  0
   -1.1100    1.6421    0.1891 O   0  0  0  0  0  0  0  0  0  0  0  0
    2.6931    1.9094   -1.2665 H   0  0  0  0  0  0  0  0  0  0  0  0
    2.7521    2.7710    0.3225 H   0  0  0  0  0  0  0  0  0  0  0  0
    3.0436   -0.9465   -0.0166 H   0  0  0  0  0  0  0  0  0  0  0  0
    4.7067   -0.9423   -0.0553 H   0  0  0  0  0  0  0  0  0  0  0  0
    1.2960    1.0230    1.3487 H   0  0  0  0  0  0  0  0  0  0  0  0
    1.1590    0.1919   -0.2505 H   0  0  0  0  0  0  0  0  0  0  0  0
    7.2047    1.4646    0.1580 H   0  0  0  0  0  0  0  0  0  0  0  0
   -1.8813    2.1827   -0.0330 H   0  0  0  0  0  0  0  0  0  0  0  0
    3.8357    0.7969    1.3911 H   0  0  0  0  0  0  0  0  0  0  0  0
  1  5  1  0  0  0  0
  2  1  1  0  0  0  0
  2  3  1  0  0  0  0
  2  4  1  0  0  0  0
  2 19  1  1  0  0  0
  3  6  2  0  0  0  0
  3  7  1  0  0  0  0
  5  8  1  0  0  0  0
  8  9  2  0  0  0  0
  8 10  1  0  0  0  0
 11  1  1  0  0  0  0
 12  1  1  0  0  0  0
 13  4  1  0  0  0  0
 14  4  1  0  0  0  0
 15  5  1  0  0  0  0
 16  5  1  0  0  0  0
 17  7  1  0  0  0  0
 18 10  1  0  0  0  0
M  END
