  HEXAFLUOROACETONE.mol	684-16-2
  NIST    11071316233D 1   1.00000  -788.56145
Copyright by the U.S. Sec. Commerce on behalf of U.S.A. All rights reserved.
 10  9  0  0  0  0  0  0  0  0999 V2000
    2.5897    0.8915    0.0624 C    0  0  0  0  0  0  0  0  0  0  0  0
    1.2817    1.7203   -0.0002 C    0  0  0  0  0  0  0  0  0  0  0  0
   -0.0392    0.9124   -0.0624 C    0  0  0  0  0  0  0  0  0  0  0  0
    1.2913    2.9197   -0.0005 O    0  0  0  0  0  0  0  0  0  0  0  0
    3.6346    1.6514   -0.2618 F    0  0  0  0  0  0  0  0  0  0  0  0
    2.7595    0.4218    1.3102 F    0  0  0  0  0  0  0  0  0  0  0  0
    2.5244   -0.1508   -0.7835 F    0  0  0  0  0  0  0  0  0  0  0  0
   -1.0719    1.6888    0.2619 F    0  0  0  0  0  0  0  0  0  0  0  0
   -0.2167    0.4452   -1.3100 F    0  0  0  0  0  0  0  0  0  0  0  0
    0.0096   -0.1307    0.7838 F    0  0  0  0  0  0  0  0  0  0  0  0
  1  2  1  0
  1  5  1  0
  1  6  1  0
  1  7  1  0
  2  3  1  0
  2  4  2  0
  3  8  1  0
  3  9  1  0
  3 10  1  0
M  END
