  HEXAMETHYLENEIMINE.mol	111-49-9
  NIST    06271401023D 1   1.00000  -291.20320
Copyright by the U.S. Sec. Commerce on behalf of U.S.A. All rights reserved.
 20 20  0  0  0  0  0  0  0  0999 V2000
   -5.9942    0.8426    0.4495 C    0  0  0  0  0  0  0  0  0  0  0  0
   -6.2800   -0.2853   -0.5855 C    0  0  0  0  0  0  0  0  0  0  0  0
   -4.6415    0.7224    1.1692 C    0  0  0  0  0  0  0  0  0  0  0  0
   -5.0426   -1.0463   -1.0907 C    0  0  0  0  0  0  0  0  0  0  0  0
   -3.4185    1.0802    0.2578 C    0  0  0  0  0  0  0  0  0  0  0  0
   -3.9863   -0.1825   -1.8112 C    0  0  0  0  0  0  0  0  0  0  0  0
   -3.6320    1.0936   -1.1877 N    0  0  0  0  0  0  0  0  0  0  0  0
   -6.0486    1.8241   -0.0407 H    0  0  0  0  0  0  0  0  0  0  0  0
   -6.7962    0.8497    1.1979 H    0  0  0  0  0  0  0  0  0  0  0  0
   -6.8295    0.1340   -1.4395 H    0  0  0  0  0  0  0  0  0  0  0  0
   -6.9557   -1.0215   -0.1314 H    0  0  0  0  0  0  0  0  0  0  0  0
   -4.5341   -0.2913    1.5752 H    0  0  0  0  0  0  0  0  0  0  0  0
   -4.6382    1.3912    2.0400 H    0  0  0  0  0  0  0  0  0  0  0  0
   -5.3641   -1.8445   -1.7745 H    0  0  0  0  0  0  0  0  0  0  0  0
   -4.5709   -1.5603   -0.2435 H    0  0  0  0  0  0  0  0  0  0  0  0
   -2.5874    0.3944    0.4665 H    0  0  0  0  0  0  0  0  0  0  0  0
   -3.0604    2.0821    0.5248 H    0  0  0  0  0  0  0  0  0  0  0  0
   -4.3289    0.0499   -2.8277 H    0  0  0  0  0  0  0  0  0  0  0  0
   -3.0694   -0.7791   -1.9255 H    0  0  0  0  0  0  0  0  0  0  0  0
   -4.3362    1.7895   -1.4169 H    0  0  0  0  0  0  0  0  0  0  0  0
  7  5  1  0
  5  3  1  0
  3  1  1  0
  1  2  1  0
  2  4  1  0
  4  6  1  0
  7  6  1  0
  1  8  1  0
  1  9  1  0
  2 10  1  0
  2 11  1  0
  3 12  1  0
  3 13  1  0
  4 14  1  0
  4 15  1  0
  5 16  1  0
  5 17  1  0
  6 18  1  0
  6 19  1  0
  7 20  1  0
M  END
