  HEXACHLORO-1,3-BUTADIENE.mol	87-68-3
  NIST    06201314153D 1   1.00000 -2913.52838
Copyright by the U.S. Sec. Commerce on behalf of U.S.A. All rights reserved.
 10  9  0  0  0  0  0  0  0  0999 V2000
    1.0941    0.9210    0.3347 C    0  0  0  0  0  0  0  0  0  0  0  0
    1.9370    1.5818   -0.4798 C    0  0  0  0  0  0  0  0  0  0  0  0
    0.8916   -0.7939    0.3197 Cl   0  0  0  0  0  0  0  0  0  0  0  0
    0.1170    1.7610    1.4974 Cl   0  0  0  0  0  0  0  0  0  0  0  0
    2.0892    3.0473   -0.4798 C    0  0  0  0  0  0  0  0  0  0  0  0
    2.8887    0.7322   -1.6770 Cl   0  0  0  0  0  0  0  0  0  0  0  0
    2.9321    3.7081    0.3347 C    0  0  0  0  0  0  0  0  0  0  0  0
    1.1375    3.8969   -1.6770 Cl   0  0  0  0  0  0  0  0  0  0  0  0
    3.1346    5.4230    0.3197 Cl   0  0  0  0  0  0  0  0  0  0  0  0
    3.9092    2.8681    1.4974 Cl   0  0  0  0  0  0  0  0  0  0  0  0
  1  2  2  0
  1  3  1  0
  1  4  1  0
  2  5  1  0
  2  6  1  0
  5  7  2  0
  5  8  1  0
  7  9  1  0
  7 10  1  0
M  END
