  HEXAFLUOROETHANE.mol	76-16-4
  NIST    06201314153D 1   1.00000  -675.25490
Copyright by the U.S. Sec. Commerce on behalf of U.S.A. All rights reserved.
  8  7  0  0  0  0  0  0  0  0999 V2000
    2.0395    1.0144    0.0001 C    0  0  0  0  0  0  0  0  0  0  0  0
    0.4955    1.0146   -0.0001 C    0  0  0  0  0  0  0  0  0  0  0  0
    0.0410   -0.2441    0.0000 F    0  0  0  0  0  0  0  0  0  0  0  0
    0.0412    1.6438   -1.0904 F    0  0  0  0  0  0  0  0  0  0  0  0
    0.0408    1.6442    1.0898 F    0  0  0  0  0  0  0  0  0  0  0  0
    2.4940    2.2731   -0.0000 F    0  0  0  0  0  0  0  0  0  0  0  0
    2.4938    0.3852    1.0904 F    0  0  0  0  0  0  0  0  0  0  0  0
    2.4942    0.3848   -1.0898 F    0  0  0  0  0  0  0  0  0  0  0  0
  1  2  1  0
  1  6  1  0
  1  7  1  0
  1  8  1  0
  2  3  1  0
  2  4  1  0
  2  5  1  0
M  END
