  HEXENE-5-NITRILES.mol	5048-19-1
  NIST    08101209303D 1   1.00000  -288.77305
Copyright by the U.S. Sec. Commerce on behalf of U.S.A. All rights reserved.
 16 15  0  0  0  0  0  0  0  0999 V2000
   53.9331    8.9777   -0.0135 C    0  0  0  0  0  0  0  0  0  0  0  0
   52.5714    8.3359   -0.3345 C    0  0  0  0  0  0  0  0  0  0  0  0
   53.8581   10.5190   -0.0319 C    0  0  0  0  0  0  0  0  0  0  0  0
   55.1449   11.1517    0.2720 C    0  0  0  0  0  0  0  0  0  0  0  0
   56.1722   11.6348    0.5145 N    0  0  0  0  0  0  0  0  0  0  0  0
   52.6371    6.8327   -0.3685 C    0  0  0  0  0  0  0  0  0  0  0  0
   51.9540    6.0182    0.4360 C    0  0  0  0  0  0  0  0  0  0  0  0
   54.2777    8.6413    0.9708 H    0  0  0  0  0  0  0  0  0  0  0  0
   54.6849    8.6461   -0.7401 H    0  0  0  0  0  0  0  0  0  0  0  0
   52.2266    8.7098   -1.3114 H    0  0  0  0  0  0  0  0  0  0  0  0
   51.8263    8.6570    0.4055 H    0  0  0  0  0  0  0  0  0  0  0  0
   53.5223   10.8713   -1.0157 H    0  0  0  0  0  0  0  0  0  0  0  0
   53.1177   10.8718    0.6976 H    0  0  0  0  0  0  0  0  0  0  0  0
   53.3107    6.4037   -1.1123 H    0  0  0  0  0  0  0  0  0  0  0  0
   52.0453    4.9376    0.3681 H    0  0  0  0  0  0  0  0  0  0  0  0
   51.2723    6.4015    1.1930 H    0  0  0  0  0  0  0  0  0  0  0  0
  1  2  1  0
  1  3  1  0
  2  6  1  0
  3  4  1  0
  4  5  3  0
  6  7  2  0
  1  8  1  0
  1  9  1  0
  2 10  1  0
  2 11  1  0
  3 12  1  0
  3 13  1  0
  6 14  1  0
  7 15  1  0
  7 16  1  0
M  END
