  INDOLE.mol	120-72-9
  NIST    06221412323D 1   1.00000  -363.81670
Copyright by the U.S. Sec. Commerce on behalf of U.S.A. All rights reserved.
 16 17  0  0  0  0  0  0  0  0999 V2000
    0.7577    1.6269    0.4876 C    0  0  0  0  0  0  0  0  0  0  0  0
    1.7709    0.6284    0.4309 C    0  0  0  0  0  0  0  0  0  0  0  0
   -0.4408    0.9796    0.9468 C    0  0  0  0  0  0  0  0  0  0  0  0
    1.0856    2.9437    0.1181 C    0  0  0  0  0  0  0  0  0  0  0  0
    1.1958   -0.5585    0.8394 N    0  0  0  0  0  0  0  0  0  0  0  0
    3.0786    0.9111    0.0208 C    0  0  0  0  0  0  0  0  0  0  0  0
   -0.1348   -0.3403    1.1477 C    0  0  0  0  0  0  0  0  0  0  0  0
    2.3820    3.2288   -0.2893 C    0  0  0  0  0  0  0  0  0  0  0  0
    3.3693    2.2220   -0.3375 C    0  0  0  0  0  0  0  0  0  0  0  0
   -1.4066    1.4392    1.1066 H    0  0  0  0  0  0  0  0  0  0  0  0
    0.3319    3.7265    0.1521 H    0  0  0  0  0  0  0  0  0  0  0  0
    1.6699   -1.4456    0.9030 H    0  0  0  0  0  0  0  0  0  0  0  0
    3.8399    0.1359   -0.0166 H    0  0  0  0  0  0  0  0  0  0  0  0
   -0.7566   -1.1565    1.4889 H    0  0  0  0  0  0  0  0  0  0  0  0
    2.6451    4.2432   -0.5767 H    0  0  0  0  0  0  0  0  0  0  0  0
    4.3751    2.4760   -0.6608 H    0  0  0  0  0  0  0  0  0  0  0  0
  8  9  2  0
  9  6  1  0
  6  2  2  0
  2  5  1  0
  5  7  1  0
  7  3  2  0
  3  1  1  0
  2  1  1  0
  1  4  2  0
  8  4  1  0
  3 10  1  0
  4 11  1  0
  5 12  1  0
  6 13  1  0
  7 14  1  0
  8 15  1  0
  9 16  1  0
M  END
