  IODINE.mol	7553-56-2
  NIST    06271311363D 1   1.00000   -22.83416
Copyright by the U.S. Sec. Commerce on behalf of U.S.A. All rights reserved.
  2  1  0  0  0  0  0  0  0  0999 V2000
   -0.0961    0.0000    0.0000 I    0  0  0  0  0  0  0  0  0  0  0  0
    2.7561    0.0000    0.0000 I    0  0  0  0  0  0  0  0  0  0  0  0
  1  2  1  0
M  END
