  ISO-PROPYL ISO-BUTYRATE.mol	617-50-5
  NIST    06061418343D 1   1.00000  -425.65330
Copyright by the U.S. Sec. Commerce on behalf of U.S.A. All rights reserved.
 23 22  0  0  0  0  0  0  0  0999 V2000
   34.2081   29.7117    0.3836 O    0  0  0  0  0  0  0  0  0  0  0  0
   35.3064   29.2711   -0.2739 C    0  0  0  0  0  0  0  0  0  0  0  0
   36.5194   30.1447    0.0229 C    0  0  0  0  0  0  0  0  0  0  0  0
   35.3127   28.3048   -1.0081 O    0  0  0  0  0  0  0  0  0  0  0  0
   32.9655   28.9753    0.1843 C    0  0  0  0  0  0  0  0  0  0  0  0
   36.2982   31.5843   -0.4745 C    0  0  0  0  0  0  0  0  0  0  0  0
   36.8709   30.1127    1.5209 C    0  0  0  0  0  0  0  0  0  0  0  0
   32.9291   27.7761    1.1262 C    0  0  0  0  0  0  0  0  0  0  0  0
   31.8427   29.9745    0.4268 C    0  0  0  0  0  0  0  0  0  0  0  0
   37.3368   29.6908   -0.5471 H    0  0  0  0  0  0  0  0  0  0  0  0
   32.9568   28.6275   -0.8527 H    0  0  0  0  0  0  0  0  0  0  0  0
   37.2046   32.1796   -0.3163 H    0  0  0  0  0  0  0  0  0  0  0  0
   36.0633   31.6060   -1.5446 H    0  0  0  0  0  0  0  0  0  0  0  0
   35.4753   32.0619    0.0666 H    0  0  0  0  0  0  0  0  0  0  0  0
   37.7827   30.6918    1.7055 H    0  0  0  0  0  0  0  0  0  0  0  0
   37.0461   29.0887    1.8695 H    0  0  0  0  0  0  0  0  0  0  0  0
   36.0628   30.5444    2.1198 H    0  0  0  0  0  0  0  0  0  0  0  0
   31.9897   27.2258    1.0000 H    0  0  0  0  0  0  0  0  0  0  0  0
   33.7560   27.0943    0.9100 H    0  0  0  0  0  0  0  0  0  0  0  0
   32.9992   28.1031    2.1698 H    0  0  0  0  0  0  0  0  0  0  0  0
   30.8712   29.4944    0.2662 H    0  0  0  0  0  0  0  0  0  0  0  0
   31.9244   30.8255   -0.2567 H    0  0  0  0  0  0  0  0  0  0  0  0
   31.8734   30.3532    1.4545 H    0  0  0  0  0  0  0  0  0  0  0  0
  1  2  1  0
  1  5  1  0
  2  3  1  0
  2  4  2  0
  3  6  1  0
  3  7  1  0
  5  8  1  0
  5  9  1  0
  3 10  1  0
  5 11  1  0
  6 12  1  0
  6 13  1  0
  6 14  1  0
  7 15  1  0
  7 16  1  0
  7 17  1  0
  8 18  1  0
  8 19  1  0
  8 20  1  0
  9 21  1  0
  9 22  1  0
  9 23  1  0
M  END
