  ISO-AMYL BROMIDE.mol	107-82-4
  NIST    06201412313D 1   1.00000 -2768.87570
Copyright by the U.S. Sec. Commerce on behalf of U.S.A. All rights reserved.
 17 16  0  0  0  0  0  0  0  0999 V2000
   60.1040    0.0302   -0.1661 Br   0  0  0  0  0  0  0  0  0  0  0  0
   58.1215   -0.0084   -0.0557 C    0  0  0  0  0  0  0  0  0  0  0  0
   57.5479    1.3976    0.0429 C    0  0  0  0  0  0  0  0  0  0  0  0
   56.0028    1.4297    0.0584 C    0  0  0  0  0  0  0  0  0  0  0  0
   55.4101    0.7366    1.2953 C    0  0  0  0  0  0  0  0  0  0  0  0
   55.5107    2.8819   -0.0370 C    0  0  0  0  0  0  0  0  0  0  0  0
   57.7972   -0.5283   -0.9584 H    0  0  0  0  0  0  0  0  0  0  0  0
   57.9063   -0.6237    0.8170 H    0  0  0  0  0  0  0  0  0  0  0  0
   57.9351    1.8847    0.9474 H    0  0  0  0  0  0  0  0  0  0  0  0
   57.9125    1.9838   -0.8092 H    0  0  0  0  0  0  0  0  0  0  0  0
   55.6465    0.8951   -0.8358 H    0  0  0  0  0  0  0  0  0  0  0  0
   54.3156    0.7966    1.2871 H    0  0  0  0  0  0  0  0  0  0  0  0
   55.6787   -0.3244    1.3481 H    0  0  0  0  0  0  0  0  0  0  0  0
   55.7619    1.2172    2.2175 H    0  0  0  0  0  0  0  0  0  0  0  0
   54.4157    2.9256   -0.0644 H    0  0  0  0  0  0  0  0  0  0  0  0
   55.8902    3.3747   -0.9397 H    0  0  0  0  0  0  0  0  0  0  0  0
   55.8456    3.4671    0.8291 H    0  0  0  0  0  0  0  0  0  0  0  0
  1  2  1  0
  2  3  1  0
  3  4  1  0
  4  5  1  0
  4  6  1  0
  2  7  1  0
  2  8  1  0
  3  9  1  0
  3 10  1  0
  4 11  1  0
  5 12  1  0
  5 13  1  0
  5 14  1  0
  6 15  1  0
  6 16  1  0
  6 17  1  0
M  END
