  ISO-CAPROIC ACID.mol	646-07-1
  NIST    06201314153D 1   1.00000  -386.33716
Copyright by the U.S. Sec. Commerce on behalf of U.S.A. All rights reserved.
 20 19  0  0  0  0  0  0  0  0999 V2000
    1.7209    1.5084   -0.0863 C    0  0  0  0  0  0  0  0  0  0  0  0
    2.9930    0.6596   -0.0214 C    0  0  0  0  0  0  0  0  0  0  0  0
    1.9690    3.0287   -0.0578 C    0  0  0  0  0  0  0  0  0  0  0  0
    2.7080   -0.8243    0.0661 C    0  0  0  0  0  0  0  0  0  0  0  0
    2.7678    3.5216   -1.2744 C    0  0  0  0  0  0  0  0  0  0  0  0
    0.6336    3.7806    0.0484 C    0  0  0  0  0  0  0  0  0  0  0  0
    3.8574   -1.5495    0.0751 O    0  0  0  0  0  0  0  0  0  0  0  0
    1.6156   -1.3437    0.1257 O    0  0  0  0  0  0  0  0  0  0  0  0
    1.1580    1.2461   -0.9924 H    0  0  0  0  0  0  0  0  0  0  0  0
    1.0755    1.2308    0.7556 H    0  0  0  0  0  0  0  0  0  0  0  0
    3.6051    0.9289    0.8511 H    0  0  0  0  0  0  0  0  0  0  0  0
    3.6404    0.8193   -0.8920 H    0  0  0  0  0  0  0  0  0  0  0  0
    2.5551    3.2567    0.8466 H    0  0  0  0  0  0  0  0  0  0  0  0
    2.9067    4.6084   -1.2361 H    0  0  0  0  0  0  0  0  0  0  0  0
    3.7633    3.0672   -1.3310 H    0  0  0  0  0  0  0  0  0  0  0  0
    2.2395    3.2877   -2.2082 H    0  0  0  0  0  0  0  0  0  0  0  0
    0.7922    4.8636    0.1107 H    0  0  0  0  0  0  0  0  0  0  0  0
    0.0690    3.4711    0.9358 H    0  0  0  0  0  0  0  0  0  0  0  0
    0.0048    3.5868   -0.8303 H    0  0  0  0  0  0  0  0  0  0  0  0
    3.5830   -2.4837    0.1384 H    0  0  0  0  0  0  0  0  0  0  0  0
  1  2  1  0
  1  3  1  0
  2  4  1  0
  3  5  1  0
  3  6  1  0
  4  7  1  0
  4  8  2  0
  1  9  1  0
  1 10  1  0
  2 11  1  0
  2 12  1  0
  3 13  1  0
  5 14  1  0
  5 15  1  0
  5 16  1  0
  6 17  1  0
  6 18  1  0
  6 19  1  0
  7 20  1  0
M  END
