  ISOBUTYL VALERATE.mol	10588-10-0
  NIST    07021521153D 1   1.00000  -504.27780
Copyright by the U.S. Sec. Commerce on behalf of U.S.A. All rights reserved.
 29 28  0  0  0  0  0  0  0  0999 V2000
    6.9630    2.0217    1.2847 O    0  0  0  0  0  0  0  0  0  0  0  0
    5.7616    2.3645    1.8048 C    0  0  0  0  0  0  0  0  0  0  0  0
    4.6595    1.4855    1.2440 C    0  0  0  0  0  0  0  0  0  0  0  0
    5.6122    3.2550    2.6137 O    0  0  0  0  0  0  0  0  0  0  0  0
    8.0996    2.7789    1.7572 C    0  0  0  0  0  0  0  0  0  0  0  0
    3.2622    1.9044    1.7051 C    0  0  0  0  0  0  0  0  0  0  0  0
    9.3552    2.2401    1.0764 C    0  0  0  0  0  0  0  0  0  0  0  0
    2.1576    0.9955    1.1527 C    0  0  0  0  0  0  0  0  0  0  0  0
   10.5595    3.1136    1.4580 C    0  0  0  0  0  0  0  0  0  0  0  0
    9.5994    0.7641    1.4186 C    0  0  0  0  0  0  0  0  0  0  0  0
    0.7565    1.4166    1.6076 C    0  0  0  0  0  0  0  0  0  0  0  0
    4.8772    0.4498    1.5406 H    0  0  0  0  0  0  0  0  0  0  0  0
    4.7392    1.4973    0.1489 H    0  0  0  0  0  0  0  0  0  0  0  0
    8.1614    2.6843    2.8479 H    0  0  0  0  0  0  0  0  0  0  0  0
    7.9377    3.8373    1.5256 H    0  0  0  0  0  0  0  0  0  0  0  0
    3.0776    2.9422    1.3992 H    0  0  0  0  0  0  0  0  0  0  0  0
    3.2314    1.9071    2.8017 H    0  0  0  0  0  0  0  0  0  0  0  0
    9.1978    2.3225   -0.0086 H    0  0  0  0  0  0  0  0  0  0  0  0
    2.3477   -0.0415    1.4650 H    0  0  0  0  0  0  0  0  0  0  0  0
    2.2003    0.9937    0.0539 H    0  0  0  0  0  0  0  0  0  0  0  0
   10.4044    4.1625    1.1787 H    0  0  0  0  0  0  0  0  0  0  0  0
   11.4669    2.7632    0.9541 H    0  0  0  0  0  0  0  0  0  0  0  0
   10.7466    3.0782    2.5390 H    0  0  0  0  0  0  0  0  0  0  0  0
    8.7394    0.1468    1.1422 H    0  0  0  0  0  0  0  0  0  0  0  0
    9.7759    0.6372    2.4949 H    0  0  0  0  0  0  0  0  0  0  0  0
   10.4795    0.3815    0.8893 H    0  0  0  0  0  0  0  0  0  0  0  0
    0.6723    1.3947    2.7009 H    0  0  0  0  0  0  0  0  0  0  0  0
    0.5240    2.4368    1.2791 H    0  0  0  0  0  0  0  0  0  0  0  0
   -0.0129    0.7511    1.2001 H    0  0  0  0  0  0  0  0  0  0  0  0
  1  2  1  0  0  0  0
  1  5  1  0  0  0  0
  2  3  1  0  0  0  0
  2  4  2  0  0  0  0
  3  6  1  0  0  0  0
  3 12  1  0  0  0  0
  3 13  1  0  0  0  0
  5  7  1  0  0  0  0
  5 14  1  0  0  0  0
  5 15  1  0  0  0  0
  6  8  1  0  0  0  0
  6 16  1  0  0  0  0
  6 17  1  0  0  0  0
  7  9  1  0  0  0  0
  7 10  1  0  0  0  0
  7 18  1  0  0  0  0
  8 11  1  0  0  0  0
  8 19  1  0  0  0  0
  8 20  1  0  0  0  0
  9 21  1  0  0  0  0
  9 22  1  0  0  0  0
  9 23  1  0  0  0  0
 10 24  1  0  0  0  0
 10 25  1  0  0  0  0
 10 26  1  0  0  0  0
 11 27  1  0  0  0  0
 11 28  1  0  0  0  0
 11 29  1  0  0  0  0
M  END
