  ISOBUTYLAMINE.mol	78-81-9
  NIST    07011509013D 1   1.00000  -213.79820
Copyright by the U.S. Sec. Commerce on behalf of U.S.A. All rights reserved.
 16 15  0  0  0  0  0  0  0  0999 V2000
    2.0281    2.7629    1.6627 C    0  0  0  0  0  0  0  0  0  0  0  0
    0.7615    2.0521    1.4455 N    0  0  0  0  0  0  0  0  0  0  0  0
    3.2200    1.9814    1.0848 C    0  0  0  0  0  0  0  0  0  0  0  0
    3.3754    0.6097    1.7531 C    0  0  0  0  0  0  0  0  0  0  0  0
    4.5079    2.8095    1.1913 C    0  0  0  0  0  0  0  0  0  0  0  0
    2.0380    3.7860    1.2426 H    0  0  0  0  0  0  0  0  0  0  0  0
    2.1661    2.8704    2.7476 H    0  0  0  0  0  0  0  0  0  0  0  0
    0.0035    2.5455    1.9138 H    0  0  0  0  0  0  0  0  0  0  0  0
    0.5325    2.0648    0.4519 H    0  0  0  0  0  0  0  0  0  0  0  0
    3.0132    1.8177    0.0141 H    0  0  0  0  0  0  0  0  0  0  0  0
    4.1645    0.0215    1.2694 H    0  0  0  0  0  0  0  0  0  0  0  0
    3.6472    0.7243    2.8112 H    0  0  0  0  0  0  0  0  0  0  0  0
    2.4383    0.0485    1.7066 H    0  0  0  0  0  0  0  0  0  0  0  0
    4.7537    3.0179    2.2410 H    0  0  0  0  0  0  0  0  0  0  0  0
    5.3588    2.2747    0.7539 H    0  0  0  0  0  0  0  0  0  0  0  0
    4.4146    3.7721    0.6736 H    0  0  0  0  0  0  0  0  0  0  0  0
  1  2  1  0  0  0  0
  1  3  1  0  0  0  0
  1  6  1  0  0  0  0
  1  7  1  0  0  0  0
  2  8  1  0  0  0  0
  2  9  1  0  0  0  0
  3  4  1  0  0  0  0
  3  5  1  0  0  0  0
  3 10  1  0  0  0  0
  4 11  1  0  0  0  0
  4 12  1  0  0  0  0
  4 13  1  0  0  0  0
  5 14  1  0  0  0  0
  5 15  1  0  0  0  0
  5 16  1  0  0  0  0
M  END
