
 OpenBabel06071909403D

 15 14  0  0  0  0  0  0  0  0999 V2000
    2.6759    2.3556    0.9935 C   0  0  0  0  0  0  0  0  0  0  0  0
    1.5104    2.1683    1.9790 C   0  0  0  0  0  0  0  0  0  0  0  0
    0.8610    0.7938    1.7767 C   0  0  0  0  0  0  0  0  0  0  0  0
    1.9850    2.3173    3.4313 C   0  0  0  0  0  0  0  0  0  0  0  0
    3.2264    3.6361    1.1377 O   0  0  0  0  0  0  0  0  0  0  0  0
    3.4563    1.5849    1.1877 H   0  0  0  0  0  0  0  0  0  0  0  0
    2.2910    2.2405   -0.0450 H   0  0  0  0  0  0  0  0  0  0  0  0
    0.7438    2.9485    1.7752 H   0  0  0  0  0  0  0  0  0  0  0  0
    0.4859    0.6958    0.7356 H   0  0  0  0  0  0  0  0  0  0  0  0
   -0.0011    0.6714    2.4666 H   0  0  0  0  0  0  0  0  0  0  0  0
    1.5927   -0.0200    1.9710 H   0  0  0  0  0  0  0  0  0  0  0  0
    2.4216    3.3248    3.5970 H   0  0  0  0  0  0  0  0  0  0  0  0
    2.7521    1.5508    3.6746 H   0  0  0  0  0  0  0  0  0  0  0  0
    1.1278    2.1981    4.1280 H   0  0  0  0  0  0  0  0  0  0  0  0
    3.9699    3.6919    0.4827 H   0  0  0  0  0  0  0  0  0  0  0  0
  1  2  1  0  0  0  0
  1  5  1  0  0  0  0
  1  6  1  0  0  0  0
  1  7  1  0  0  0  0
  2  3  1  0  0  0  0
  2  4  1  0  0  0  0
  2  8  1  0  0  0  0
  3  9  1  0  0  0  0
  3 10  1  0  0  0  0
  3 11  1  0  0  0  0
  4 12  1  0  0  0  0
  4 13  1  0  0  0  0
  4 14  1  0  0  0  0
  5 15  1  0  0  0  0
M  END
