  ISOPROPENYL ACETATE.mol	108-22-5
  NIST    06301517333D 1   1.00000  -345.78820
Copyright by the U.S. Sec. Commerce on behalf of U.S.A. All rights reserved.
 15 14  0  0  0  0  0  0  0  0999 V2000
    0.6568    1.1146    2.4381 C    0  0  0  0  0  0  0  0  0  0  0  0
    1.9670    1.8654    2.4278 C    0  0  0  0  0  0  0  0  0  0  0  0
    3.0018    0.9968    2.2266 O    0  0  0  0  0  0  0  0  0  0  0  0
    2.1009    3.0562    2.5784 O    0  0  0  0  0  0  0  0  0  0  0  0
    4.3128    1.5073    2.1362 C    0  0  0  0  0  0  0  0  0  0  0  0
    5.1880    1.1243    3.0612 C    0  0  0  0  0  0  0  0  0  0  0  0
    4.5902    2.3442    0.9247 C    0  0  0  0  0  0  0  0  0  0  0  0
   -0.1585    1.8120    2.6324 H    0  0  0  0  0  0  0  0  0  0  0  0
    0.5011    0.6184    1.4743 H    0  0  0  0  0  0  0  0  0  0  0  0
    0.6747    0.3351    3.2065 H    0  0  0  0  0  0  0  0  0  0  0  0
    4.8888    0.5007    3.8966 H    0  0  0  0  0  0  0  0  0  0  0  0
    6.2269    1.4278    2.9956 H    0  0  0  0  0  0  0  0  0  0  0  0
    4.0075    3.2699    0.9534 H    0  0  0  0  0  0  0  0  0  0  0  0
    5.6524    2.5967    0.8706 H    0  0  0  0  0  0  0  0  0  0  0  0
    4.3140    1.8000    0.0128 H    0  0  0  0  0  0  0  0  0  0  0  0
  1  2  1  0  0  0  0
  1  8  1  0  0  0  0
  1  9  1  0  0  0  0
  1 10  1  0  0  0  0
  2  3  1  0  0  0  0
  2  4  2  0  0  0  0
  3  5  1  0  0  0  0
  5  6  2  0  0  0  0
  5  7  1  0  0  0  0
  6 11  1  0  0  0  0
  6 12  1  0  0  0  0
  7 13  1  0  0  0  0
  7 14  1  0  0  0  0
  7 15  1  0  0  0  0
M  END
