  ISOPHTHALIC ACID.mol	121-91-5
  NIST    06301518543D 1   1.00000  -609.39424
Copyright by the U.S. Sec. Commerce on behalf of U.S.A. All rights reserved.
 18 18  0  0  0  0  0  0  0  0999 V2000
    0.9804    3.4605    0.1367 O    0  0  0  0  0  0  0  0  0  0  0  0
    1.6298    4.6513    0.1125 C    0  0  0  0  0  0  0  0  0  0  0  0
    1.0380    5.7118    0.1167 O    0  0  0  0  0  0  0  0  0  0  0  0
    3.1105    4.5057    0.0812 C    0  0  0  0  0  0  0  0  0  0  0  0
    3.7348    3.2537    0.0774 C    0  0  0  0  0  0  0  0  0  0  0  0
    3.8837    5.6748    0.0552 C    0  0  0  0  0  0  0  0  0  0  0  0
    5.1312    3.1758    0.0476 C    0  0  0  0  0  0  0  0  0  0  0  0
    5.2743    5.5945    0.0254 C    0  0  0  0  0  0  0  0  0  0  0  0
    5.8509    1.8733    0.0424 C    0  0  0  0  0  0  0  0  0  0  0  0
    5.8985    4.3488    0.0216 C    0  0  0  0  0  0  0  0  0  0  0  0
    5.0147    0.8053    0.0698 O    0  0  0  0  0  0  0  0  0  0  0  0
    7.0588    1.7493    0.0165 O    0  0  0  0  0  0  0  0  0  0  0  0
    0.0299    3.6777    0.1557 H    0  0  0  0  0  0  0  0  0  0  0  0
    3.1399    2.3493    0.0975 H    0  0  0  0  0  0  0  0  0  0  0  0
    3.3743    6.6330    0.0588 H    0  0  0  0  0  0  0  0  0  0  0  0
    5.8710    6.5016    0.0052 H    0  0  0  0  0  0  0  0  0  0  0  0
    6.9798    4.2603   -0.0012 H    0  0  0  0  0  0  0  0  0  0  0  0
    5.5904    0.0182    0.0635 H    0  0  0  0  0  0  0  0  0  0  0  0
  1  2  1  0  0  0  0
  1 13  1  0  0  0  0
  2  3  2  0  0  0  0
  2  4  1  0  0  0  0
  4  6  1  0  0  0  0
  5  4  2  0  0  0  0
  5 14  1  0  0  0  0
  6  8  2  0  0  0  0
  6 15  1  0  0  0  0
  7  5  1  0  0  0  0
  7  9  1  0  0  0  0
  8 10  1  0  0  0  0
  8 16  1  0  0  0  0
  9 11  1  0  0  0  0
  9 12  2  0  0  0  0
 10  7  2  0  0  0  0
 10 17  1  0  0  0  0
 11 18  1  0  0  0  0
M  END
