  ISOPROPYLAMINE.mol	75-31-0
  NIST    07011508283D 1   1.00000  -174.48730
Copyright by the U.S. Sec. Commerce on behalf of U.S.A. All rights reserved.
 13 12  0  0  0  0  0  0  0  0999 V2000
    3.4551    1.1951    1.1086 C    0  0  0  0  0  0  0  0  0  0  0  0
    2.1520    1.7589    1.7000 C    0  0  0  0  0  0  0  0  0  0  0  0
    0.9203    1.0803    1.0946 C    0  0  0  0  0  0  0  0  0  0  0  0
    2.0072    3.2174    1.5556 N    0  0  0  0  0  0  0  0  0  0  0  0
    3.4940    1.3649    0.0241 H    0  0  0  0  0  0  0  0  0  0  0  0
    4.3323    1.6792    1.5559 H    0  0  0  0  0  0  0  0  0  0  0  0
    3.5455    0.1152    1.2813 H    0  0  0  0  0  0  0  0  0  0  0  0
    2.1531    1.5588    2.7809 H    0  0  0  0  0  0  0  0  0  0  0  0
    0.0050    1.4831    1.5384 H    0  0  0  0  0  0  0  0  0  0  0  0
    0.8760    1.2526    0.0104 H    0  0  0  0  0  0  0  0  0  0  0  0
    0.9450   -0.0032    1.2567 H    0  0  0  0  0  0  0  0  0  0  0  0
    2.0134    3.4550    0.5621 H    0  0  0  0  0  0  0  0  0  0  0  0
    2.8247    3.6809    1.9529 H    0  0  0  0  0  0  0  0  0  0  0  0
  1  2  1  0  0  0  0
  1  5  1  0  0  0  0
  1  6  1  0  0  0  0
  1  7  1  0  0  0  0
  2  3  1  0  0  0  0
  2  4  1  0  0  0  0
  2  8  1  0  0  0  0
  3  9  1  0  0  0  0
  3 10  1  0  0  0  0
  3 11  1  0  0  0  0
  4 12  1  0  0  0  0
  4 13  1  0  0  0  0
M  END
