
 OpenBabel11181910073D

 20 19  0  0  0  0  0  0  0  0999 V2000
    5.5857    2.3183   11.1009 C   0  0  0  0  0  0  0  0  0  0  0  0
    5.0476    2.7138   12.1248 O   0  0  0  0  0  0  0  0  0  0  0  0
    4.9618    2.4146    9.8998 O   0  0  0  0  0  0  0  0  0  0  0  0
    6.5775    1.8832   11.1524 H   0  0  0  0  0  0  0  0  0  0  0  0
    3.7004    2.9543    9.7417 C   0  0  0  0  0  0  0  0  0  0  0  0
    3.3065    2.8941    8.2625 C   0  0  0  0  0  0  0  0  0  0  0  0
    3.7110    4.0060   10.0970 H   0  0  0  0  0  0  0  0  0  0  0  0
    2.9688    2.3688   10.3416 H   0  0  0  0  0  0  0  0  0  0  0  0
    1.8743    3.4057    7.9814 C   0  0  0  0  0  0  0  0  0  0  0  0
    3.3656    1.8289    7.9459 H   0  0  0  0  0  0  0  0  0  0  0  0
    4.0413    3.4753    7.6624 H   0  0  0  0  0  0  0  0  0  0  0  0
    1.7007    4.8913    8.3353 C   0  0  0  0  0  0  0  0  0  0  0  0
    1.8630    5.0691    9.4171 H   0  0  0  0  0  0  0  0  0  0  0  0
    0.6643    5.2185    8.1046 H   0  0  0  0  0  0  0  0  0  0  0  0
    2.4100    5.5184    7.7537 H   0  0  0  0  0  0  0  0  0  0  0  0
    1.5334    3.1911    6.5006 C   0  0  0  0  0  0  0  0  0  0  0  0
    1.1544    2.8107    8.5861 H   0  0  0  0  0  0  0  0  0  0  0  0
    1.6121    2.1142    6.2392 H   0  0  0  0  0  0  0  0  0  0  0  0
    2.2251    3.7681    5.8494 H   0  0  0  0  0  0  0  0  0  0  0  0
    0.4919    3.5181    6.2934 H   0  0  0  0  0  0  0  0  0  0  0  0
  1  2  2  0  0  0  0
  1  3  1  0  0  0  0
  1  4  1  0  0  0  0
  3  5  1  0  0  0  0
  5  6  1  0  0  0  0
  5  7  1  0  0  0  0
  5  8  1  0  0  0  0
  6  9  1  0  0  0  0
  6 10  1  0  0  0  0
  6 11  1  0  0  0  0
  9 12  1  0  0  0  0
  9 16  1  0  0  0  0
  9 17  1  0  0  0  0
 12 13  1  0  0  0  0
 12 14  1  0  0  0  0
 12 15  1  0  0  0  0
 16 18  1  0  0  0  0
 16 19  1  0  0  0  0
 16 20  1  0  0  0  0
M  END
