  ISOVALERIC ACID.mol	503-74-2
  NIST    08031215123D 1   1.00000  -347.02452
Copyright by the U.S. Sec. Commerce on behalf of U.S.A. All rights reserved.
 17 16  0  0  0  0  0  0  0  0999 V2000
   34.9291   30.0754   -0.0336 C    0  0  0  0  0  0  0  0  0  0  0  0
   33.6498   29.2249   -0.0761 C    0  0  0  0  0  0  0  0  0  0  0  0
   34.6792   31.5591    0.1369 C    0  0  0  0  0  0  0  0  0  0  0  0
   32.8348   29.4953   -1.3493 C    0  0  0  0  0  0  0  0  0  0  0  0
   33.9978   27.7353    0.0534 C    0  0  0  0  0  0  0  0  0  0  0  0
   35.7988   32.2836   -0.1207 O    0  0  0  0  0  0  0  0  0  0  0  0
   33.6406   32.0789    0.4833 O    0  0  0  0  0  0  0  0  0  0  0  0
   35.5674   29.7694    0.8082 H    0  0  0  0  0  0  0  0  0  0  0  0
   35.5375   29.9259   -0.9347 H    0  0  0  0  0  0  0  0  0  0  0  0
   33.0364   29.5167    0.7859 H    0  0  0  0  0  0  0  0  0  0  0  0
   31.9144   28.9000   -1.3552 H    0  0  0  0  0  0  0  0  0  0  0  0
   32.5522   30.5498   -1.4218 H    0  0  0  0  0  0  0  0  0  0  0  0
   33.4085   29.2279   -2.2469 H    0  0  0  0  0  0  0  0  0  0  0  0
   33.0904   27.1207    0.0469 H    0  0  0  0  0  0  0  0  0  0  0  0
   34.5377   27.5263    0.9850 H    0  0  0  0  0  0  0  0  0  0  0  0
   34.6293   27.4016   -0.7804 H    0  0  0  0  0  0  0  0  0  0  0  0
   35.5579   33.2151    0.0431 H    0  0  0  0  0  0  0  0  0  0  0  0
  1  2  1  0
  1  3  1  0
  2  4  1  0
  2  5  1  0
  3  6  1  0
  3  7  2  0
  1  8  1  0
  1  9  1  0
  2 10  1  0
  4 11  1  0
  4 12  1  0
  4 13  1  0
  5 14  1  0
  5 15  1  0
  5 16  1  0
  6 17  1  0
M  END
