  ISOXAZOLE.mol	288-14-2
  NIST    06301514523D 1   1.00000  -246.03471
Copyright by the U.S. Sec. Commerce on behalf of U.S.A. All rights reserved.
  8  8  0  0  0  0  0  0  0  0999 V2000
    2.7640    0.9387    0.0238 C    0  0  0  0  0  0  0  0  0  0  0  0
    1.3421    0.8750    0.0659 C    0  0  0  0  0  0  0  0  0  0  0  0
    0.9788    2.1856    0.0646 C    0  0  0  0  0  0  0  0  0  0  0  0
    3.2120    2.1718   -0.0004 N    0  0  0  0  0  0  0  0  0  0  0  0
    2.0665    2.9755    0.0257 O    0  0  0  0  0  0  0  0  0  0  0  0
    3.4774    0.1239    0.0105 H    0  0  0  0  0  0  0  0  0  0  0  0
    0.7081    0.0018    0.0924 H    0  0  0  0  0  0  0  0  0  0  0  0
    0.0274    2.6979    0.0877 H    0  0  0  0  0  0  0  0  0  0  0  0
  1  2  1  0  0  0  0
  1  6  1  0  0  0  0
  2  3  2  0  0  0  0
  2  7  1  0  0  0  0
  3  5  1  0  0  0  0
  3  8  1  0  0  0  0
  4  1  2  0  0  0  0
  5  4  1  0  0  0  0
M  END
