  L-PHENYLALANINE.mol	63-91-2
  NIST    06061410273D 1   1.00000  -554.78590
Copyright by the U.S. Sec. Commerce on behalf of U.S.A. All rights reserved.
 23 23  0  0  0  0  0  0  0  0999 V2000
    6.3372    1.8212   -0.6418 C    0  0  0  0  0  0  0  0  0  0  0  0
    7.3666    2.9285   -0.7200 C    0  0  0  0  0  0  0  0  0  0  0  0
    6.6820    0.5837   -0.0817 C    0  0  0  0  0  0  0  0  0  0  0  0
    5.0280    2.0005   -1.1100 C    0  0  0  0  0  0  0  0  0  0  0  0
    7.1950    4.0170    0.3708 C    0  0  0  0  0  0  0  0  0  0  0  0
    8.5274    4.7623    0.5553 C    0  0  0  0  0  0  0  0  0  0  0  0
    6.0255    4.8460    0.1055 N    0  0  0  0  0  0  0  0  0  0  0  0
    8.3800    6.1127    0.5668 O    0  0  0  0  0  0  0  0  0  0  0  0
    9.6066    4.2301    0.6957 O    0  0  0  0  0  0  0  0  0  0  0  0
    4.0916    0.9706   -1.0194 C    0  0  0  0  0  0  0  0  0  0  0  0
    4.4473   -0.2579   -0.4583 C    0  0  0  0  0  0  0  0  0  0  0  0
    5.7470   -0.4487    0.0117 C    0  0  0  0  0  0  0  0  0  0  0  0
    8.3710    2.5082   -0.6177 H    0  0  0  0  0  0  0  0  0  0  0  0
    7.3239    3.4231   -1.7007 H    0  0  0  0  0  0  0  0  0  0  0  0
    7.6957    0.4264    0.2810 H    0  0  0  0  0  0  0  0  0  0  0  0
    4.7423    2.9581   -1.5335 H    0  0  0  0  0  0  0  0  0  0  0  0
    7.0284    3.5001    1.3256 H    0  0  0  0  0  0  0  0  0  0  0  0
    5.8552    5.4730    0.8891 H    0  0  0  0  0  0  0  0  0  0  0  0
    6.2096    5.4488   -0.6954 H    0  0  0  0  0  0  0  0  0  0  0  0
    9.2761    6.4743    0.7062 H    0  0  0  0  0  0  0  0  0  0  0  0
    3.0812    1.1278   -1.3886 H    0  0  0  0  0  0  0  0  0  0  0  0
    3.7175   -1.0605   -0.3910 H    0  0  0  0  0  0  0  0  0  0  0  0
    6.0366   -1.4020    0.4466 H    0  0  0  0  0  0  0  0  0  0  0  0
  1  2  1  0
  2  5  1  0
  5  6  1  0
  5  7  1  0
  6  8  1  0
  6  9  2  0
  1  3  1  0
  3 12  2  0
 12 11  1  0
 11 10  2  0
 10  4  1  0
  1  4  2  0
  2 13  1  0
  2 14  1  0
  3 15  1  0
  4 16  1  0
  5 17  1  0
  7 18  1  0
  7 19  1  0
  8 20  1  0
 10 21  1  0
 11 22  1  0
 12 23  1  0
M  END
