  LACTIC ACID.mol	50-21-5
  NIST    08101209303D 1   1.00000  -343.60166
Copyright by the U.S. Sec. Commerce on behalf of U.S.A. All rights reserved.
 12 11  0  0  0  0  0  0  0  0999 V2000
    0.0121    1.3102    0.0123 C    0  0  0  0  0  0  0  0  0  0  0  0
    1.1996    0.3567   -0.0153 C    0  0  0  0  0  0  0  0  0  0  0  0
    1.3473   -0.3872    1.3141 C    0  0  0  0  0  0  0  0  0  0  0  0
    2.3582    1.0955   -0.3589 O    0  0  0  0  0  0  0  0  0  0  0  0
    2.6497   -0.6765    1.5769 O    0  0  0  0  0  0  0  0  0  0  0  0
    0.4415   -0.7394    2.0327 O    0  0  0  0  0  0  0  0  0  0  0  0
   -0.1066    1.7721   -0.9717 H    0  0  0  0  0  0  0  0  0  0  0  0
   -0.9021    0.7726    0.2742 H    0  0  0  0  0  0  0  0  0  0  0  0
    0.1812    2.1008    0.7497 H    0  0  0  0  0  0  0  0  0  0  0  0
    1.0069   -0.4346   -0.7640 H    0  0  0  0  0  0  0  0  0  0  0  0
    3.1304    0.5355   -0.1814 H    0  0  0  0  0  0  0  0  0  0  0  0
    2.6590   -1.1813    2.4117 H    0  0  0  0  0  0  0  0  0  0  0  0
  1  2  1  0
  2  4  1  0
  3  5  1  0
  2  3  1  0
  3  6  2  0
  1  7  1  0
  1  8  1  0
  1  9  1  0
  2 10  1  0
  4 11  1  0
  5 12  1  0
M  END
