
 OpenBabel08211711163D

 22 21  0  0  0  0  0  0  0  0999 V2000
    1.3476    1.6998    0.7202 C   0  0  0  0  0  0  0  0  0  0  0  0
    2.8235    1.2063    0.6231 C   0  0  2  0  0  0  0  0  0  0  0  0
    3.5490    1.6453   -0.6363 C   0  0  0  0  0  0  0  0  0  0  0  0
    2.9689   -0.2375    0.8043 N   0  0  0  0  0  0  0  0  0  0  0  0
    0.2989    1.1890   -0.3122 C   0  0  0  0  0  0  0  0  0  0  0  0
    2.9698    2.2794   -1.5044 O   0  0  0  0  0  0  0  0  0  0  0  0
    4.8582    1.3541   -0.7967 O   0  0  0  0  0  0  0  0  0  0  0  0
   -0.1339   -0.2704   -0.0821 C   0  0  0  0  0  0  0  0  0  0  0  0
   -0.9566    2.0726   -0.2212 C   0  0  0  0  0  0  0  0  0  0  0  0
    1.4125    2.8066    0.6209 H   0  0  0  0  0  0  0  0  0  0  0  0
    0.9597    1.4974    1.7432 H   0  0  0  0  0  0  0  0  0  0  0  0
    2.3875   -0.5765    1.6049 H   0  0  0  0  0  0  0  0  0  0  0  0
    2.7615   -0.7607   -0.0743 H   0  0  0  0  0  0  0  0  0  0  0  0
    0.6942    1.2952   -1.3436 H   0  0  0  0  0  0  0  0  0  0  0  0
    5.3499    0.8627   -0.1233 H   0  0  0  0  0  0  0  0  0  0  0  0
   -0.5445   -0.3991    0.9427 H   0  0  0  0  0  0  0  0  0  0  0  0
    0.6801   -0.9938   -0.2292 H   0  0  0  0  0  0  0  0  0  0  0  0
   -0.9223   -0.5506   -0.8133 H   0  0  0  0  0  0  0  0  0  0  0  0
   -0.7008    3.1326   -0.4344 H   0  0  0  0  0  0  0  0  0  0  0  0
   -1.4115    2.0123    0.7915 H   0  0  0  0  0  0  0  0  0  0  0  0
   -1.7123    1.7527   -0.9708 H   0  0  0  0  0  0  0  0  0  0  0  0
    3.3572    1.6939    1.4683 H   0  0  0  0  0  0  0  0  0  0  0  0
  1  2  1  0  0  0  0
  1  5  1  0  0  0  0
  2  3  1  0  0  0  0
  2  4  1  0  0  0  0
  2 22  1  1  0  0  0
  3  6  2  0  0  0  0
  3  7  1  0  0  0  0
  5  8  1  0  0  0  0
  5  9  1  0  0  0  0
 10  1  1  0  0  0  0
 11  1  1  0  0  0  0
 12  4  1  0  0  0  0
 13  4  1  0  0  0  0
 14  5  1  0  0  0  0
 15  7  1  0  0  0  0
 16  8  1  0  0  0  0
 17  8  1  0  0  0  0
 18  8  1  0  0  0  0
 19  9  1  0  0  0  0
 20  9  1  0  0  0  0
 21  9  1  0  0  0  0
M  END
