
 OpenBabel09131614363D

 29 28  0  0  1  0  0  0  0  0999 V2000
   -1.9530    1.0992    0.0497 C   0  0  0  0  0  0  0  0  0  0  0  0
   -0.7220    1.9830   -0.1178 C   0  0  1  0  0  0  0  0  0  0  0  0
   -0.7574    3.1391    0.9111 C   0  0  0  0  0  0  0  0  0  0  0  0
    0.1075    3.8205    0.7853 H   0  0  0  0  0  0  0  0  0  0  0  0
   -0.7543    2.7379    1.9474 H   0  0  0  0  0  0  0  0  0  0  0  0
   -1.6688    3.7598    0.7832 H   0  0  0  0  0  0  0  0  0  0  0  0
    0.5370    1.0994    0.0986 C   0  0  0  0  0  0  0  0  0  0  0  0
    1.8756    1.8306   -0.1116 C   0  0  0  0  0  0  0  0  0  0  0  0
    0.4964    0.2567   -0.6288 H   0  0  0  0  0  0  0  0  0  0  0  0
    0.5180    0.6694    1.1256 H   0  0  0  0  0  0  0  0  0  0  0  0
    3.0420    0.8848    0.0562 C   0  0  0  0  0  0  0  0  0  0  0  0
    1.9830    2.6472    0.6303 H   0  0  0  0  0  0  0  0  0  0  0  0
    1.9027    2.2563   -1.1374 H   0  0  0  0  0  0  0  0  0  0  0  0
    4.3268    1.2816   -0.0833 C   0  0  0  0  0  0  0  0  0  0  0  0
    4.6784    2.7098   -0.4191 C   0  0  0  0  0  0  0  0  0  0  0  0
    5.7792    2.8390   -0.4914 H   0  0  0  0  0  0  0  0  0  0  0  0
    4.3024    3.3921    0.3718 H   0  0  0  0  0  0  0  0  0  0  0  0
    4.2329    2.9935   -1.3956 H   0  0  0  0  0  0  0  0  0  0  0  0
    5.4455    0.2888    0.0969 C   0  0  0  0  0  0  0  0  0  0  0  0
    6.0386    0.2264   -0.8395 H   0  0  0  0  0  0  0  0  0  0  0  0
    5.0719   -0.7288    0.3409 H   0  0  0  0  0  0  0  0  0  0  0  0
    6.1073    0.6237    0.9229 H   0  0  0  0  0  0  0  0  0  0  0  0
    2.8339   -0.1548    0.2987 H   0  0  0  0  0  0  0  0  0  0  0  0
   -3.1992    1.5615   -0.1147 C   0  0  0  0  0  0  0  0  0  0  0  0
   -1.8282    0.0505    0.3088 H   0  0  0  0  0  0  0  0  0  0  0  0
   -3.3882    2.5969   -0.3764 H   0  0  0  0  0  0  0  0  0  0  0  0
   -4.0442    0.8928    0.0137 H   0  0  0  0  0  0  0  0  0  0  0  0
   -0.6795    2.4907   -1.4322 O   0  0  0  0  0  0  0  0  0  0  0  0
   -1.4055    3.1592   -1.5384 H   0  0  0  0  0  0  0  0  0  0  0  0
  1 24  2  0  0  0  0
  1 25  1  0  0  0  0
  2  1  1  1  0  0  0
  2  3  1  0  0  0  0
  2  7  1  0  0  0  0
  2 28  1  0  0  0  0
  3  4  1  0  0  0  0
  3  5  1  0  0  0  0
  3  6  1  0  0  0  0
  7  8  1  0  0  0  0
  7  9  1  0  0  0  0
  7 10  1  0  0  0  0
  8 11  1  0  0  0  0
  8 12  1  0  0  0  0
  8 13  1  0  0  0  0
 11 14  2  0  0  0  0
 11 23  1  0  0  0  0
 14 15  1  0  0  0  0
 14 19  1  0  0  0  0
 15 16  1  0  0  0  0
 15 17  1  0  0  0  0
 15 18  1  0  0  0  0
 19 20  1  0  0  0  0
 19 21  1  0  0  0  0
 19 22  1  0  0  0  0
 24 26  1  0  0  0  0
 24 27  1  0  0  0  0
 28 29  1  0  0  0  0
M  END
