  LINOLENIC ACID.mol	463-40-1
  NIST    08031215113D 1   1.00000  -854.39847
Copyright by the U.S. Sec. Commerce on behalf of U.S.A. All rights reserved.
 50 49  0  0  0  0  0  0  0  0999 V2000
  139.2477   29.5537    0.1261 C    0  0  0  0  0  0  0  0  0  0  0  0
  138.7967   28.7261    1.3461 C    0  0  0  0  0  0  0  0  0  0  0  0
  137.7244   27.6813    1.0113 C    0  0  0  0  0  0  0  0  0  0  0  0
  140.2325   30.6318    0.4942 C    0  0  0  0  0  0  0  0  0  0  0  0
  137.3000   26.8474    2.2284 C    0  0  0  0  0  0  0  0  0  0  0  0
  141.5150   30.7480    0.1280 C    0  0  0  0  0  0  0  0  0  0  0  0
  136.1649   25.8451    1.9613 C    0  0  0  0  0  0  0  0  0  0  0  0
  142.3098   29.8425   -0.7861 C    0  0  0  0  0  0  0  0  0  0  0  0
  136.5319   24.7159    0.9885 C    0  0  0  0  0  0  0  0  0  0  0  0
  142.8156   30.5889   -1.9999 C    0  0  0  0  0  0  0  0  0  0  0  0
  135.3988   23.7022    0.8184 C    0  0  0  0  0  0  0  0  0  0  0  0
  144.0836   30.8007   -2.3709 C    0  0  0  0  0  0  0  0  0  0  0  0
  135.7357   22.5891   -0.1497 C    0  0  0  0  0  0  0  0  0  0  0  0
  145.3491   30.3385   -1.6845 C    0  0  0  0  0  0  0  0  0  0  0  0
  145.9553   32.1420    2.2105 C    0  0  0  0  0  0  0  0  0  0  0  0
  146.5507   31.1785    1.1689 C    0  0  0  0  0  0  0  0  0  0  0  0
  146.2640   31.4977   -1.3577 C    0  0  0  0  0  0  0  0  0  0  0  0
  146.7666   31.8414   -0.1662 C    0  0  0  0  0  0  0  0  0  0  0  0
  136.7653   22.4725   -0.7768 O    0  0  0  0  0  0  0  0  0  0  0  0
  134.7188   21.6935   -0.2511 O    0  0  0  0  0  0  0  0  0  0  0  0
  139.6618   28.8812   -0.6342 H    0  0  0  0  0  0  0  0  0  0  0  0
  138.3593   30.0202   -0.3272 H    0  0  0  0  0  0  0  0  0  0  0  0
  138.4149   29.4046    2.1231 H    0  0  0  0  0  0  0  0  0  0  0  0
  139.6742   28.2289    1.7823 H    0  0  0  0  0  0  0  0  0  0  0  0
  138.1015   27.0217    0.2177 H    0  0  0  0  0  0  0  0  0  0  0  0
  136.8411   28.1878    0.5934 H    0  0  0  0  0  0  0  0  0  0  0  0
  139.8363   31.3943    1.1677 H    0  0  0  0  0  0  0  0  0  0  0  0
  136.9820   27.5293    3.0297 H    0  0  0  0  0  0  0  0  0  0  0  0
  138.1743   26.3067    2.6200 H    0  0  0  0  0  0  0  0  0  0  0  0
  142.0763   31.6029    0.5068 H    0  0  0  0  0  0  0  0  0  0  0  0
  135.8548   25.4032    2.9192 H    0  0  0  0  0  0  0  0  0  0  0  0
  135.2857   26.3856    1.5792 H    0  0  0  0  0  0  0  0  0  0  0  0
  143.1491   29.4141   -0.2236 H    0  0  0  0  0  0  0  0  0  0  0  0
  141.6950   28.9947   -1.1139 H    0  0  0  0  0  0  0  0  0  0  0  0
  136.7919   25.1221    0.0047 H    0  0  0  0  0  0  0  0  0  0  0  0
  137.4297   24.1951    1.3455 H    0  0  0  0  0  0  0  0  0  0  0  0
  142.0285   31.0127   -2.6244 H    0  0  0  0  0  0  0  0  0  0  0  0
  135.1262   23.2415    1.7776 H    0  0  0  0  0  0  0  0  0  0  0  0
  134.4811   24.1881    0.4590 H    0  0  0  0  0  0  0  0  0  0  0  0
  144.2498   31.3808   -3.2801 H    0  0  0  0  0  0  0  0  0  0  0  0
  145.1224   29.7534   -0.7901 H    0  0  0  0  0  0  0  0  0  0  0  0
  145.8838   29.6581   -2.3685 H    0  0  0  0  0  0  0  0  0  0  0  0
  145.8521   31.6533    3.1861 H    0  0  0  0  0  0  0  0  0  0  0  0
  146.5938   33.0237    2.3435 H    0  0  0  0  0  0  0  0  0  0  0  0
  144.9656   32.4934    1.8982 H    0  0  0  0  0  0  0  0  0  0  0  0
  145.9042   30.2996    1.0725 H    0  0  0  0  0  0  0  0  0  0  0  0
  147.5166   30.8080    1.5446 H    0  0  0  0  0  0  0  0  0  0  0  0
  146.5304   32.1178   -2.2152 H    0  0  0  0  0  0  0  0  0  0  0  0
  147.4125   32.7212   -0.1325 H    0  0  0  0  0  0  0  0  0  0  0  0
  135.0185   21.0206   -0.8909 H    0  0  0  0  0  0  0  0  0  0  0  0
  1  2  1  0
  1  4  1  0
  2  3  1  0
  3  5  1  0
  4  6  2  0
  5  7  1  0
  6  8  1  0
  7  9  1  0
  8 10  1  0
  9 11  1  0
 10 12  2  0
 11 13  1  0
 12 14  1  0
 13 20  1  0
 13 19  2  0
 14 17  1  0
 17 18  2  0
 18 16  1  0
 16 15  1  0
  1 21  1  0
  1 22  1  0
  2 23  1  0
  2 24  1  0
  3 25  1  0
  3 26  1  0
  4 27  1  0
  5 28  1  0
  5 29  1  0
  6 30  1  0
  7 31  1  0
  7 32  1  0
  8 33  1  0
  8 34  1  0
  9 35  1  0
  9 36  1  0
 10 37  1  0
 11 38  1  0
 11 39  1  0
 12 40  1  0
 14 41  1  0
 14 42  1  0
 15 43  1  0
 15 44  1  0
 15 45  1  0
 16 46  1  0
 16 47  1  0
 17 48  1  0
 18 49  1  0
 20 50  1  0
M  END
