  M-CHLOROANILINE.mol	108-42-9
  NIST    06201421303D 1   1.00000  -747.19869
Copyright by the U.S. Sec. Commerce on behalf of U.S.A. All rights reserved.
 14 14  0  0  0  0  0  0  0  0999 V2000
    6.3270    1.8556   -0.6838 C    0  0  0  0  0  0  0  0  0  0  0  0
    6.8551    0.5980   -0.3447 C    0  0  0  0  0  0  0  0  0  0  0  0
    4.9308    2.0171   -0.7235 C    0  0  0  0  0  0  0  0  0  0  0  0
    7.1780    2.9361   -0.9194 N    0  0  0  0  0  0  0  0  0  0  0  0
    5.9905   -0.4523   -0.0555 C    0  0  0  0  0  0  0  0  0  0  0  0
    4.6051   -0.3071   -0.0903 C    0  0  0  0  0  0  0  0  0  0  0  0
    6.6801   -2.0204    0.3634 Cl   0  0  0  0  0  0  0  0  0  0  0  0
    4.0918    0.9467   -0.4292 C    0  0  0  0  0  0  0  0  0  0  0  0
    7.9292    0.4460   -0.3025 H    0  0  0  0  0  0  0  0  0  0  0  0
    4.5105    2.9864   -0.9803 H    0  0  0  0  0  0  0  0  0  0  0  0
    6.7857    3.6752   -1.4891 H    0  0  0  0  0  0  0  0  0  0  0  0
    8.1140    2.6922   -1.2181 H    0  0  0  0  0  0  0  0  0  0  0  0
    3.9553   -1.1437    0.1382 H    0  0  0  0  0  0  0  0  0  0  0  0
    3.0149    1.0887   -0.4657 H    0  0  0  0  0  0  0  0  0  0  0  0
  1  4  1  0
  5  7  1  0
  1  2  1  0
  2  5  2  0
  5  6  1  0
  6  8  2  0
  8  3  1  0
  1  3  2  0
  2  9  1  0
  3 10  1  0
  4 11  1  0
  4 12  1  0
  6 13  1  0
  8 14  1  0
M  END
