  M-CHLOROBENZOIC ACID.mol	535-80-8
  NIST    06201314163D 1   1.00000  -880.40474
Copyright by the U.S. Sec. Commerce on behalf of U.S.A. All rights reserved.
 15 15  0  0  0  0  0  0  0  0999 V2000
    7.3841    3.2440   -0.8577 Cl   0  0  0  0  0  0  0  0  0  0  0  0
    6.3031    1.8813   -0.6210 C    0  0  0  0  0  0  0  0  0  0  0  0
    5.8032   -2.6882    0.8406 O    0  0  0  0  0  0  0  0  0  0  0  0
    6.5971   -1.7725    0.2231 C    0  0  0  0  0  0  0  0  0  0  0  0
    7.7451   -2.0421   -0.0348 O    0  0  0  0  0  0  0  0  0  0  0  0
    5.9686   -0.4481   -0.1063 C    0  0  0  0  0  0  0  0  0  0  0  0
    6.8339    0.6342   -0.3108 C    0  0  0  0  0  0  0  0  0  0  0  0
    4.5855   -0.2711   -0.2462 C    0  0  0  0  0  0  0  0  0  0  0  0
    4.9257    2.0715   -0.7519 C    0  0  0  0  0  0  0  0  0  0  0  0
    4.0716    0.9843   -0.5701 C    0  0  0  0  0  0  0  0  0  0  0  0
    4.9732   -2.2747    1.1281 H    0  0  0  0  0  0  0  0  0  0  0  0
    7.9035    0.4819   -0.2243 H    0  0  0  0  0  0  0  0  0  0  0  0
    3.9027   -1.1114   -0.1481 H    0  0  0  0  0  0  0  0  0  0  0  0
    4.5343    3.0525   -0.9990 H    0  0  0  0  0  0  0  0  0  0  0  0
    3.0005    1.1184   -0.6890 H    0  0  0  0  0  0  0  0  0  0  0  0
  1  2  1  0
  3  4  1  0
  4  5  2  0
  4  6  1  0
  2  7  1  0
  7  6  2  0
  6  8  1  0
  8 10  2  0
 10  9  1  0
  2  9  2  0
  3 11  1  0
  7 12  1  0
  8 13  1  0
  9 14  1  0
 10 15  1  0
M  END
