  M-DIBROMOBENZENE.mol	108-36-1
  NIST    07141419363D 1   1.00000 -5374.45715
Copyright by the U.S. Sec. Commerce on behalf of U.S.A. All rights reserved.
 12 12  0  0  0  0  0  0  0  0999 V2000
    7.4846    3.3095   -1.0560 Br   0  0  0  0  0  0  0  0  0  0  0  0
    6.3183    1.8470   -0.6672 C    0  0  0  0  0  0  0  0  0  0  0  0
    6.8732    0.6117   -0.3371 C    0  0  0  0  0  0  0  0  0  0  0  0
    4.9390    2.0388   -0.7204 C    0  0  0  0  0  0  0  0  0  0  0  0
    6.0078   -0.4444   -0.0571 C    0  0  0  0  0  0  0  0  0  0  0  0
    4.0988    0.9617   -0.4349 C    0  0  0  0  0  0  0  0  0  0  0  0
    6.7453   -2.1475    0.3972 Br   0  0  0  0  0  0  0  0  0  0  0  0
    4.6238   -0.2875   -0.1012 C    0  0  0  0  0  0  0  0  0  0  0  0
    7.9470    0.4762   -0.2994 H    0  0  0  0  0  0  0  0  0  0  0  0
    4.5321    3.0096   -0.9795 H    0  0  0  0  0  0  0  0  0  0  0  0
    3.0218    1.0976   -0.4729 H    0  0  0  0  0  0  0  0  0  0  0  0
    3.9719   -1.1247    0.1208 H    0  0  0  0  0  0  0  0  0  0  0  0
  1  2  1  0
  5  7  1  0
  2  3  1  0
  3  5  2  0
  5  8  1  0
  8  6  2  0
  6  4  1  0
  2  4  2  0
  3  9  1  0
  4 10  1  0
  6 11  1  0
  8 12  1  0
M  END
