  M-DINITROBENZENE.mol	99-65-0
  NIST    06171420193D 1   1.00000  -641.24625
Copyright by the U.S. Sec. Commerce on behalf of U.S.A. All rights reserved.
 16 16  0  0  0  0  0  0  0  0999 V2000
    6.3148    1.8996   -0.6811 C    0  0  0  0  0  0  0  0  0  0  0  0
    6.8269    0.6465   -0.3468 C    0  0  0  0  0  0  0  0  0  0  0  0
    4.9314    2.0701   -0.7287 C    0  0  0  0  0  0  0  0  0  0  0  0
    4.0798    1.0024   -0.4458 C    0  0  0  0  0  0  0  0  0  0  0  0
    4.6365   -0.2327   -0.1160 C    0  0  0  0  0  0  0  0  0  0  0  0
    6.0098   -0.4405   -0.0584 C    0  0  0  0  0  0  0  0  0  0  0  0
    3.7374   -1.3652    0.1844 N    0  0  0  0  0  0  0  0  0  0  0  0
    8.2913    0.4628   -0.2960 N    0  0  0  0  0  0  0  0  0  0  0  0
    8.7120   -0.6519    0.0016 O    0  0  0  0  0  0  0  0  0  0  0  0
    8.9915    1.4394   -0.5546 O    0  0  0  0  0  0  0  0  0  0  0  0
    2.5277   -1.1561    0.1247 O    0  0  0  0  0  0  0  0  0  0  0  0
    4.2574   -2.4393    0.4742 O    0  0  0  0  0  0  0  0  0  0  0  0
    6.9982    2.7120   -0.8963 H    0  0  0  0  0  0  0  0  0  0  0  0
    4.5154    3.0385   -0.9871 H    0  0  0  0  0  0  0  0  0  0  0  0
    3.0022    1.1080   -0.4757 H    0  0  0  0  0  0  0  0  0  0  0  0
    6.4243   -1.4058    0.1995 H    0  0  0  0  0  0  0  0  0  0  0  0
  2  8  1  0
  5  7  1  0
  7 11  2  0
  7 12  2  0
  8  9  2  0
  8 10  2  0
  1  2  1  0
  2  6  2  0
  6  5  1  0
  5  4  2  0
  4  3  1  0
  1  3  2  0
  1 13  1  0
  3 14  1  0
  4 15  1  0
  6 16  1  0
M  END
