  M-FLUOROPHENOL.mol	372-20-3
  NIST    08031215083D 1   1.00000  -406.69847
Copyright by the U.S. Sec. Commerce on behalf of U.S.A. All rights reserved.
 13 13  0  0  0  0  0  0  0  0999 V2000
    6.3331    1.8536   -0.6689 C    0  0  0  0  0  0  0  0  0  0  0  0
    6.8589    0.5994   -0.3340 C    0  0  0  0  0  0  0  0  0  0  0  0
    4.9523    2.0256   -0.7170 C    0  0  0  0  0  0  0  0  0  0  0  0
    4.0784    0.9709   -0.4375 C    0  0  0  0  0  0  0  0  0  0  0  0
    4.6331   -0.2587   -0.1089 C    0  0  0  0  0  0  0  0  0  0  0  0
    6.0060   -0.4719   -0.0498 C    0  0  0  0  0  0  0  0  0  0  0  0
    3.8157   -1.2973    0.1665 F    0  0  0  0  0  0  0  0  0  0  0  0
    8.2190    0.4770   -0.2995 O    0  0  0  0  0  0  0  0  0  0  0  0
    7.0160    2.6683   -0.8850 H    0  0  0  0  0  0  0  0  0  0  0  0
    4.5453    2.9987   -0.9770 H    0  0  0  0  0  0  0  0  0  0  0  0
    3.0009    1.0875   -0.4701 H    0  0  0  0  0  0  0  0  0  0  0  0
    6.3863   -1.4553    0.2129 H    0  0  0  0  0  0  0  0  0  0  0  0
    8.4504   -0.4328   -0.0570 H    0  0  0  0  0  0  0  0  0  0  0  0
  2  8  1  0
  5  7  1  0
  1  2  1  0
  2  6  2  0
  6  5  1  0
  5  4  2  0
  4  3  1  0
  1  3  2  0
  1  9  1  0
  3 10  1  0
  4 11  1  0
  6 12  1  0
  8 13  1  0
M  END
