  MALONIC ACID.mol	141-82-2
  NIST    06301516423D 1   1.00000  -417.64141
Copyright by the U.S. Sec. Commerce on behalf of U.S.A. All rights reserved.
 11 10  0  0  0  0  0  0  0  0999 V2000
    2.5173    2.1351    1.3356 C    0  0  0  0  0  0  0  0  0  0  0  0
    1.2529    1.3581    1.0080 C    0  0  0  0  0  0  0  0  0  0  0  0
    3.7247    1.2503    1.5981 C    0  0  0  0  0  0  0  0  0  0  0  0
    1.0044    0.4150    1.9477 O    0  0  0  0  0  0  0  0  0  0  0  0
    0.5331    1.5570    0.0594 O    0  0  0  0  0  0  0  0  0  0  0  0
    3.9141    0.3725    0.5843 O    0  0  0  0  0  0  0  0  0  0  0  0
    4.4512    1.3217    2.5598 O    0  0  0  0  0  0  0  0  0  0  0  0
    2.7255    2.7952    0.4896 H    0  0  0  0  0  0  0  0  0  0  0  0
    2.3525    2.7396    2.2312 H    0  0  0  0  0  0  0  0  0  0  0  0
    0.1838   -0.0370    1.6743 H    0  0  0  0  0  0  0  0  0  0  0  0
    4.7008   -0.1549    0.8198 H    0  0  0  0  0  0  0  0  0  0  0  0
  1  2  1  0  0  0  0
  1  3  1  0  0  0  0
  1  8  1  0  0  0  0
  1  9  1  0  0  0  0
  2  4  1  0  0  0  0
  2  5  2  0  0  0  0
  3  6  1  0  0  0  0
  3  7  2  0  0  0  0
  4 10  1  0  0  0  0
  6 11  1  0  0  0  0
M  END
