  MALONONITRILE.mol	109-77-3
  NIST    06301516313D 1   1.00000  -224.97715
Copyright by the U.S. Sec. Commerce on behalf of U.S.A. All rights reserved.
  7  6  0  0  0  0  0  0  0  0999 V2000
    3.3708    0.6815    0.9585 C    0  0  0  0  0  0  0  0  0  0  0  0
    2.1389    1.4805    0.8921 C    0  0  0  0  0  0  0  0  0  0  0  0
    0.9262    0.6528    0.8235 C    0  0  0  0  0  0  0  0  0  0  0  0
    4.3540    0.0701    1.0116 N    0  0  0  0  0  0  0  0  0  0  0  0
   -0.0422    0.0185    0.7685 N    0  0  0  0  0  0  0  0  0  0  0  0
    2.1798    2.1345    0.0119 H    0  0  0  0  0  0  0  0  0  0  0  0
    2.0826    2.1309    1.7742 H    0  0  0  0  0  0  0  0  0  0  0  0
  1  2  1  0  0  0  0
  1  4  3  0  0  0  0
  2  3  1  0  0  0  0
  2  6  1  0  0  0  0
  2  7  1  0  0  0  0
  3  5  3  0  0  0  0
M  END
