
 OpenBabel06261815043D

 24 24  0  0  1  0  0  0  0  0999 V2000
  -10.0150   -0.2999   -0.2890 C   0  0  1  0  0  0  0  0  0  0  0  0
  -11.2295    0.5185    0.2405 C   0  0  2  0  0  0  0  0  0  0  0  0
  -10.9933    2.0542    0.1156 C   0  0  1  0  0  0  0  0  0  0  0  0
  -11.5966    0.1734    1.5542 O   0  0  0  0  0  0  0  0  0  0  0  0
  -12.0687    0.2149   -0.4232 H   0  0  0  0  0  0  0  0  0  0  0  0
  -10.5152    2.5881    1.3254 O   0  0  0  0  0  0  0  0  0  0  0  0
  -11.9553    2.5559   -0.1463 H   0  0  0  0  0  0  0  0  0  0  0  0
   -9.9425    2.2966   -0.9870 C   0  0  2  0  0  0  0  0  0  0  0  0
   -8.5924    1.5582   -0.6181 C   0  0  1  0  0  0  0  0  0  0  0  0
   -9.7616    3.6550   -1.3045 O   0  0  0  0  0  0  0  0  0  0  0  0
  -10.3691    1.8231   -1.8988 H   0  0  0  0  0  0  0  0  0  0  0  0
   -7.6391    2.3925    0.2612 C   0  0  0  0  0  0  0  0  0  0  0  0
   -8.0361    1.3701   -1.5634 H   0  0  0  0  0  0  0  0  0  0  0  0
   -8.7932    0.3146    0.0707 O   0  0  0  0  0  0  0  0  0  0  0  0
  -10.0485   -0.3471   -1.4025 H   0  0  0  0  0  0  0  0  0  0  0  0
  -10.0630   -1.6329    0.1485 O   0  0  0  0  0  0  0  0  0  0  0  0
   -9.6909   -1.6566    1.0682 H   0  0  0  0  0  0  0  0  0  0  0  0
  -10.7805    0.2223    2.1174 H   0  0  0  0  0  0  0  0  0  0  0  0
  -11.3064    2.8005    1.8866 H   0  0  0  0  0  0  0  0  0  0  0  0
   -9.7424    4.1730   -0.4588 H   0  0  0  0  0  0  0  0  0  0  0  0
   -6.7336    1.7758    0.4610 H   0  0  0  0  0  0  0  0  0  0  0  0
   -7.2411    3.5591   -0.4051 O   0  0  0  0  0  0  0  0  0  0  0  0
   -8.1092    2.6460    1.2333 H   0  0  0  0  0  0  0  0  0  0  0  0
   -6.6177    4.0291    0.2077 H   0  0  0  0  0  0  0  0  0  0  0  0
  1  2  1  0  0  0  0
  1 15  1  6  0  0  0
  1 16  1  0  0  0  0
  2  3  1  0  0  0  0
  2  4  1  0  0  0  0
  2  5  1  6  0  0  0
  3  6  1  0  0  0  0
  3  7  1  6  0  0  0
  3  8  1  0  0  0  0
  4 18  1  0  0  0  0
  6 19  1  0  0  0  0
  8  9  1  0  0  0  0
  8 10  1  0  0  0  0
  8 11  1  6  0  0  0
  9 12  1  0  0  0  0
  9 13  1  6  0  0  0
  9 14  1  0  0  0  0
 10 20  1  0  0  0  0
 12 21  1  0  0  0  0
 12 22  1  0  0  0  0
 12 23  1  0  0  0  0
 14  1  1  0  0  0  0
 16 17  1  0  0  0  0
 22 24  1  0  0  0  0
M  END
