
 OpenBabel10031916443D

 24 24  0  0  1  0  0  0  0  0999 V2000
  -10.1593   -0.1480   -0.3736 C   0  0  1  0  0  0  0  0  0  0  0  0
  -11.3454    0.5546    0.3501 C   0  0  2  0  0  0  0  0  0  0  0  0
  -11.2112    2.1070    0.3175 C   0  0  1  0  0  0  0  0  0  0  0  0
  -11.5369    0.0954    1.6661 O   0  0  0  0  0  0  0  0  0  0  0  0
  -12.2385    0.2467   -0.2368 H   0  0  0  0  0  0  0  0  0  0  0  0
  -10.6604    2.5972    1.5138 O   0  0  0  0  0  0  0  0  0  0  0  0
  -12.2213    2.5606    0.1775 H   0  0  0  0  0  0  0  0  0  0  0  0
  -10.2869    2.4936   -0.8482 C   0  0  2  0  0  0  0  0  0  0  0  0
   -8.8703    1.8158   -0.6529 C   0  0  1  0  0  0  0  0  0  0  0  0
  -10.1838    3.8861   -0.9953 O   0  0  0  0  0  0  0  0  0  0  0  0
  -10.7411    2.0742   -1.7775 H   0  0  0  0  0  0  0  0  0  0  0  0
   -7.9021    2.6218    0.2389 C   0  0  0  0  0  0  0  0  0  0  0  0
   -8.3804    1.7657   -1.6508 H   0  0  0  0  0  0  0  0  0  0  0  0
   -8.9342    0.4974   -0.0888 O   0  0  0  0  0  0  0  0  0  0  0  0
  -10.3096   -0.1034   -1.4772 H   0  0  0  0  0  0  0  0  0  0  0  0
  -10.1003   -1.5134   -0.0535 O   0  0  0  0  0  0  0  0  0  0  0  0
   -9.6371   -1.5932    0.8206 H   0  0  0  0  0  0  0  0  0  0  0  0
  -10.6650    0.1602    2.1365 H   0  0  0  0  0  0  0  0  0  0  0  0
  -11.4067    2.7023    2.1604 H   0  0  0  0  0  0  0  0  0  0  0  0
  -11.0446    4.2012   -1.3767 H   0  0  0  0  0  0  0  0  0  0  0  0
   -6.9420    2.0597    0.2906 H   0  0  0  0  0  0  0  0  0  0  0  0
   -7.6488    3.8844   -0.3132 O   0  0  0  0  0  0  0  0  0  0  0  0
   -8.2943    2.7269    1.2703 H   0  0  0  0  0  0  0  0  0  0  0  0
   -6.9961    4.3252    0.2908 H   0  0  0  0  0  0  0  0  0  0  0  0
  1  2  1  0  0  0  0
  1 15  1  6  0  0  0
  1 16  1  0  0  0  0
  2  3  1  0  0  0  0
  2  4  1  0  0  0  0
  2  5  1  6  0  0  0
  3  6  1  0  0  0  0
  3  7  1  6  0  0  0
  3  8  1  0  0  0  0
  4 18  1  0  0  0  0
  6 19  1  0  0  0  0
  8  9  1  0  0  0  0
  8 10  1  0  0  0  0
  8 11  1  6  0  0  0
  9 12  1  0  0  0  0
  9 13  1  6  0  0  0
  9 14  1  0  0  0  0
 10 20  1  0  0  0  0
 12 21  1  0  0  0  0
 12 22  1  0  0  0  0
 12 23  1  0  0  0  0
 14  1  1  0  0  0  0
 16 17  1  0  0  0  0
 22 24  1  0  0  0  0
M  END
