  METHYL-ISO-BUTYL KETONE.mol	108-10-1
  NIST    06301519163D 1   1.00000  -311.09819
Copyright by the U.S. Sec. Commerce on behalf of U.S.A. All rights reserved.
 19 18  0  0  0  0  0  0  0  0999 V2000
    2.4450    2.9163    2.3908 C    0  0  0  0  0  0  0  0  0  0  0  0
    2.0842    1.4630    2.0471 C    0  0  0  0  0  0  0  0  0  0  0  0
    3.9146    3.2807    2.1981 C    0  0  0  0  0  0  0  0  0  0  0  0
    2.1732    1.2042    0.5358 C    0  0  0  0  0  0  0  0  0  0  0  0
    0.6914    1.1084    2.5869 C    0  0  0  0  0  0  0  0  0  0  0  0
    4.2534    4.7621    2.2508 C    0  0  0  0  0  0  0  0  0  0  0  0
    4.7764    2.4388    2.0258 O    0  0  0  0  0  0  0  0  0  0  0  0
    1.8232    3.6212    1.8181 H    0  0  0  0  0  0  0  0  0  0  0  0
    2.2131    3.1259    3.4478 H    0  0  0  0  0  0  0  0  0  0  0  0
    2.8249    0.8217    2.5414 H    0  0  0  0  0  0  0  0  0  0  0  0
    1.9382    0.1587    0.3050 H    0  0  0  0  0  0  0  0  0  0  0  0
    1.4586    1.8328   -0.0131 H    0  0  0  0  0  0  0  0  0  0  0  0
    3.1782    1.4129    0.1576 H    0  0  0  0  0  0  0  0  0  0  0  0
   -0.0838    1.7394    2.1320 H    0  0  0  0  0  0  0  0  0  0  0  0
    0.4392    0.0650    2.3639 H    0  0  0  0  0  0  0  0  0  0  0  0
    0.6332    1.2414    3.6742 H    0  0  0  0  0  0  0  0  0  0  0  0
    5.3366    4.8948    2.2867 H    0  0  0  0  0  0  0  0  0  0  0  0
    3.7873    5.2464    3.1173 H    0  0  0  0  0  0  0  0  0  0  0  0
    3.8603    5.2627    1.3561 H    0  0  0  0  0  0  0  0  0  0  0  0
  1  2  1  0  0  0  0
  1  3  1  0  0  0  0
  1  8  1  0  0  0  0
  1  9  1  0  0  0  0
  2  4  1  0  0  0  0
  2  5  1  0  0  0  0
  2 10  1  0  0  0  0
  3  6  1  0  0  0  0
  3  7  2  0  0  0  0
  4 11  1  0  0  0  0
  4 12  1  0  0  0  0
  4 13  1  0  0  0  0
  5 14  1  0  0  0  0
  5 15  1  0  0  0  0
  5 16  1  0  0  0  0
  6 17  1  0  0  0  0
  6 18  1  0  0  0  0
  6 19  1  0  0  0  0
M  END
