  METHYL VINYL ETHER.mol	107-25-5
  NIST    07021515243D 1   1.00000  -193.11042
Copyright by the U.S. Sec. Commerce on behalf of U.S.A. All rights reserved.
 10  9  0  0  0  0  0  0  0  0999 V2000
    1.9609    1.2027    1.1819 O    0  0  0  0  0  0  0  0  0  0  0  0
    2.3398    2.4147    0.6867 C    0  0  0  0  0  0  0  0  0  0  0  0
    3.5972    2.6856    0.3371 C    0  0  0  0  0  0  0  0  0  0  0  0
    0.5592    0.9897    1.2582 C    0  0  0  0  0  0  0  0  0  0  0  0
    1.5444    3.1589    0.6183 H    0  0  0  0  0  0  0  0  0  0  0  0
    4.3793    1.9370    0.4080 H    0  0  0  0  0  0  0  0  0  0  0  0
    3.8591    3.6759   -0.0160 H    0  0  0  0  0  0  0  0  0  0  0  0
    0.0640    1.7755    1.8460 H    0  0  0  0  0  0  0  0  0  0  0  0
    0.1025    0.9483    0.2599 H    0  0  0  0  0  0  0  0  0  0  0  0
    0.4172    0.0291    1.7570 H    0  0  0  0  0  0  0  0  0  0  0  0
  1  2  1  0  0  0  0
  1  4  1  0  0  0  0
  2  3  2  0  0  0  0
  2  5  1  0  0  0  0
  3  6  1  0  0  0  0
  3  7  1  0  0  0  0
  4  8  1  0  0  0  0
  4  9  1  0  0  0  0
  4 10  1  0  0  0  0
M  END
