  METHACRYLONITRILE.mol	126-98-7
  NIST    06161412403D 1   1.00000  -210.15151
Copyright by the U.S. Sec. Commerce on behalf of U.S.A. All rights reserved.
 10  9  0  0  0  0  0  0  0  0999 V2000
   49.0128   34.0151    0.0001 C    0  0  0  0  0  0  0  0  0  0  0  0
   48.2425   32.7149    0.0000 C    0  0  0  0  0  0  0  0  0  0  0  0
   46.9045   32.6255   -0.0000 C    0  0  0  0  0  0  0  0  0  0  0  0
   49.0311   31.5103    0.0000 C    0  0  0  0  0  0  0  0  0  0  0  0
   49.7019   30.5596    0.0000 N    0  0  0  0  0  0  0  0  0  0  0  0
   48.3262   34.8661    0.0000 H    0  0  0  0  0  0  0  0  0  0  0  0
   49.6593   34.0859    0.8824 H    0  0  0  0  0  0  0  0  0  0  0  0
   49.6595   34.0859   -0.8820 H    0  0  0  0  0  0  0  0  0  0  0  0
   46.3938   31.6683   -0.0001 H    0  0  0  0  0  0  0  0  0  0  0  0
   46.2896   33.5208   -0.0001 H    0  0  0  0  0  0  0  0  0  0  0  0
  1  2  1  0
  2  3  2  0
  2  4  1  0
  4  5  3  0
  1  6  1  0
  1  7  1  0
  1  8  1  0
  3  9  1  0
  3 10  1  0
M  END
