  METHYLACETYLENE.mol	74-99-7
  NIST    07011509283D 1   1.00000  -116.65327
Copyright by the U.S. Sec. Commerce on behalf of U.S.A. All rights reserved.
  7  6  0  0  0  0  0  0  0  0999 V2000
    0.3880    0.8439    0.5905 C    0  0  0  0  0  0  0  0  0  0  0  0
    1.8481    0.8445    0.6093 C    0  0  0  0  0  0  0  0  0  0  0  0
    3.0551    0.8451    0.6250 C    0  0  0  0  0  0  0  0  0  0  0  0
   -0.0032    1.7686    0.1497 H    0  0  0  0  0  0  0  0  0  0  0  0
   -0.0006    0.0039    0.0024 H    0  0  0  0  0  0  0  0  0  0  0  0
   -0.0214    0.7587    1.6042 H    0  0  0  0  0  0  0  0  0  0  0  0
    4.1211    0.8457    0.6384 H    0  0  0  0  0  0  0  0  0  0  0  0
  1  2  1  0  0  0  0
  1  4  1  0  0  0  0
  1  5  1  0  0  0  0
  1  6  1  0  0  0  0
  2  3  3  0  0  0  0
  3  7  1  0  0  0  0
M  END
