  METHYL N-BUTYL SULFIDE.mol	628-29-5
  NIST    06301517523D 1   1.00000  -595.95426
Copyright by the U.S. Sec. Commerce on behalf of U.S.A. All rights reserved.
 18 17  0  0  0  0  0  0  0  0999 V2000
    3.7211    1.5804    3.1492 C    0  0  0  0  0  0  0  0  0  0  0  0
    2.1279    1.0158    3.8704 S    0  0  0  0  0  0  0  0  0  0  0  0
    0.9880    2.2977    3.2392 C    0  0  0  0  0  0  0  0  0  0  0  0
    3.8531    1.3819    1.6352 C    0  0  0  0  0  0  0  0  0  0  0  0
    5.1888    1.8877    1.0599 C    0  0  0  0  0  0  0  0  0  0  0  0
    6.4219    1.1121    1.5389 C    0  0  0  0  0  0  0  0  0  0  0  0
    4.4787    1.0009    3.6868 H    0  0  0  0  0  0  0  0  0  0  0  0
    3.8727    2.6334    3.4200 H    0  0  0  0  0  0  0  0  0  0  0  0
    0.0036    2.0777    3.6610 H    0  0  0  0  0  0  0  0  0  0  0  0
    0.9108    2.2783    2.1485 H    0  0  0  0  0  0  0  0  0  0  0  0
    1.2954    3.2953    3.5692 H    0  0  0  0  0  0  0  0  0  0  0  0
    3.0322    1.9064    1.1296 H    0  0  0  0  0  0  0  0  0  0  0  0
    3.7287    0.3163    1.4025 H    0  0  0  0  0  0  0  0  0  0  0  0
    5.3085    2.9538    1.3006 H    0  0  0  0  0  0  0  0  0  0  0  0
    5.1346    1.8294   -0.0354 H    0  0  0  0  0  0  0  0  0  0  0  0
    7.3305    1.4775    1.0471 H    0  0  0  0  0  0  0  0  0  0  0  0
    6.3277    0.0429    1.3115 H    0  0  0  0  0  0  0  0  0  0  0  0
    6.5751    1.2087    2.6198 H    0  0  0  0  0  0  0  0  0  0  0  0
  1  2  1  0  0  0  0
  1  4  1  0  0  0  0
  1  7  1  0  0  0  0
  1  8  1  0  0  0  0
  2  3  1  0  0  0  0
  3  9  1  0  0  0  0
  3 10  1  0  0  0  0
  3 11  1  0  0  0  0
  4  5  1  0  0  0  0
  4 12  1  0  0  0  0
  4 13  1  0  0  0  0
  5  6  1  0  0  0  0
  5 14  1  0  0  0  0
  5 15  1  0  0  0  0
  6 16  1  0  0  0  0
  6 17  1  0  0  0  0
  6 18  1  0  0  0  0
M  END
