  METHYLCYCLOOCTANE.mol	1502-38-1
  NIST    07011504513D 1   1.00000  -353.80431
Copyright by the U.S. Sec. Commerce on behalf of U.S.A. All rights reserved.
 27 27  0  0  0  0  0  0  0  0999 V2000
    3.9154    4.2973    2.4533 C    0  0  0  0  0  0  0  0  0  0  0  0
    4.6876    3.9630    1.1676 C    0  0  0  0  0  0  0  0  0  0  0  0
    4.8588    2.4729    0.8022 C    0  0  0  0  0  0  0  0  0  0  0  0
    2.4259    3.9264    2.5098 C    0  0  0  0  0  0  0  0  0  0  0  0
    2.0424    2.4296    2.4388 C    0  0  0  0  0  0  0  0  0  0  0  0
    2.9280    1.5110    3.3238 C    0  0  0  0  0  0  0  0  0  0  0  0
    0.5562    2.2763    2.8056 C    0  0  0  0  0  0  0  0  0  0  0  0
    4.0494    0.7433    2.5961 C    0  0  0  0  0  0  0  0  0  0  0  0
    5.2205    1.5293    1.9738 C    0  0  0  0  0  0  0  0  0  0  0  0
    4.4334    3.8504    3.3115 H    0  0  0  0  0  0  0  0  0  0  0  0
    3.9891    5.3828    2.6083 H    0  0  0  0  0  0  0  0  0  0  0  0
    4.2225    4.4840    0.3182 H    0  0  0  0  0  0  0  0  0  0  0  0
    5.6902    4.4016    1.2735 H    0  0  0  0  0  0  0  0  0  0  0  0
    3.9574    2.0961    0.3040 H    0  0  0  0  0  0  0  0  0  0  0  0
    5.6503    2.4177    0.0433 H    0  0  0  0  0  0  0  0  0  0  0  0
    2.0268    4.3277    3.4541 H    0  0  0  0  0  0  0  0  0  0  0  0
    1.8907    4.4600    1.7103 H    0  0  0  0  0  0  0  0  0  0  0  0
    2.1475    2.0959    1.3985 H    0  0  0  0  0  0  0  0  0  0  0  0
    3.3480    2.0857    4.1615 H    0  0  0  0  0  0  0  0  0  0  0  0
    2.2835    0.7526    3.7886 H    0  0  0  0  0  0  0  0  0  0  0  0
    0.2133    1.2453    2.6578 H    0  0  0  0  0  0  0  0  0  0  0  0
    0.3845    2.5374    3.8582 H    0  0  0  0  0  0  0  0  0  0  0  0
   -0.0767    2.9317    2.1945 H    0  0  0  0  0  0  0  0  0  0  0  0
    4.4748    0.0219    3.3081 H    0  0  0  0  0  0  0  0  0  0  0  0
    3.5862    0.1379    1.8020 H    0  0  0  0  0  0  0  0  0  0  0  0
    5.7532    2.0878    2.7563 H    0  0  0  0  0  0  0  0  0  0  0  0
    5.9386    0.7826    1.6101 H    0  0  0  0  0  0  0  0  0  0  0  0
  1  2  1  0  0  0  0
  1 10  1  0  0  0  0
  1 11  1  0  0  0  0
  2  3  1  0  0  0  0
  2 12  1  0  0  0  0
  2 13  1  0  0  0  0
  3  9  1  0  0  0  0
  3 14  1  0  0  0  0
  3 15  1  0  0  0  0
  4  1  1  0  0  0  0
  4 16  1  0  0  0  0
  4 17  1  0  0  0  0
  5  4  1  0  0  0  0
  5  7  1  0  0  0  0
  5 18  1  0  0  0  0
  6  5  1  0  0  0  0
  6 19  1  0  0  0  0
  6 20  1  0  0  0  0
  7 21  1  0  0  0  0
  7 22  1  0  0  0  0
  7 23  1  0  0  0  0
  8  6  1  0  0  0  0
  8 24  1  0  0  0  0
  8 25  1  0  0  0  0
  9  8  1  0  0  0  0
  9 26  1  0  0  0  0
  9 27  1  0  0  0  0
M  END
