  METHYLCYCLOPROPANE.mol	594-11-6
  NIST    06301516453D 1   1.00000  -157.21202
Copyright by the U.S. Sec. Commerce on behalf of U.S.A. All rights reserved.
 12 12  0  0  0  0  0  0  0  0999 V2000
    1.9579    1.4794    1.7130 C    0  0  0  0  0  0  0  0  0  0  0  0
    3.1125    2.1300    0.9901 C    0  0  0  0  0  0  0  0  0  0  0  0
    3.0696    0.6273    1.1501 C    0  0  0  0  0  0  0  0  0  0  0  0
    0.5784    1.4519    1.0898 C    0  0  0  0  0  0  0  0  0  0  0  0
    1.9586    1.5948    2.7964 H    0  0  0  0  0  0  0  0  0  0  0  0
    2.9248    2.5410    0.0007 H    0  0  0  0  0  0  0  0  0  0  0  0
    3.8415    2.6904    1.5694 H    0  0  0  0  0  0  0  0  0  0  0  0
    3.7695    0.1609    1.8385 H    0  0  0  0  0  0  0  0  0  0  0  0
    2.8526    0.0284    0.2685 H    0  0  0  0  0  0  0  0  0  0  0  0
    0.6420    1.3338    0.0012 H    0  0  0  0  0  0  0  0  0  0  0  0
   -0.0199    0.6184    1.4787 H    0  0  0  0  0  0  0  0  0  0  0  0
    0.0298    2.3808    1.2904 H    0  0  0  0  0  0  0  0  0  0  0  0
  1  2  1  0  0  0  0
  1  4  1  0  0  0  0
  1  5  1  0  0  0  0
  2  3  1  0  0  0  0
  2  6  1  0  0  0  0
  2  7  1  0  0  0  0
  3  1  1  0  0  0  0
  3  8  1  0  0  0  0
  3  9  1  0  0  0  0
  4 10  1  0  0  0  0
  4 11  1  0  0  0  0
  4 12  1  0  0  0  0
M  END
