
 OpenBabel11181910433D

 19 18  0  0  0  0  0  0  0  0999 V2000
    2.4518    2.8300    2.7827 C   0  0  0  0  0  0  0  0  0  0  0  0
    2.1380    1.4758    2.1110 C   0  0  0  0  0  0  0  0  0  0  0  0
    3.8605    3.2910    2.5109 C   0  0  0  0  0  0  0  0  0  0  0  0
    2.2528    1.5641    0.5811 C   0  0  0  0  0  0  0  0  0  0  0  0
    0.7279    1.0143    2.4997 C   0  0  0  0  0  0  0  0  0  0  0  0
    4.1091    4.5911    1.8080 C   0  0  0  0  0  0  0  0  0  0  0  0
    4.8054    2.6045    2.8700 O   0  0  0  0  0  0  0  0  0  0  0  0
    1.7268    3.5951    2.4264 H   0  0  0  0  0  0  0  0  0  0  0  0
    2.3338    2.7328    3.8840 H   0  0  0  0  0  0  0  0  0  0  0  0
    2.8604    0.7132    2.4782 H   0  0  0  0  0  0  0  0  0  0  0  0
    2.0302    0.5767    0.1232 H   0  0  0  0  0  0  0  0  0  0  0  0
    1.5396    2.3145    0.1771 H   0  0  0  0  0  0  0  0  0  0  0  0
    3.2819    1.8515    0.2799 H   0  0  0  0  0  0  0  0  0  0  0  0
   -0.0354    1.7435    2.1517 H   0  0  0  0  0  0  0  0  0  0  0  0
    0.5088    0.0240    2.0461 H   0  0  0  0  0  0  0  0  0  0  0  0
    0.6477    0.9126    3.6031 H   0  0  0  0  0  0  0  0  0  0  0  0
    5.1988    4.7740    1.6932 H   0  0  0  0  0  0  0  0  0  0  0  0
    3.6664    5.4228    2.3949 H   0  0  0  0  0  0  0  0  0  0  0  0
    3.6427    4.5652    0.8010 H   0  0  0  0  0  0  0  0  0  0  0  0
  1  2  1  0  0  0  0
  1  3  1  0  0  0  0
  1  8  1  0  0  0  0
  1  9  1  0  0  0  0
  2  4  1  0  0  0  0
  2  5  1  0  0  0  0
  2 10  1  0  0  0  0
  3  6  1  0  0  0  0
  3  7  2  0  0  0  0
  4 11  1  0  0  0  0
  4 12  1  0  0  0  0
  4 13  1  0  0  0  0
  5 14  1  0  0  0  0
  5 15  1  0  0  0  0
  5 16  1  0  0  0  0
  6 17  1  0  0  0  0
  6 18  1  0  0  0  0
  6 19  1  0  0  0  0
M  END
