  METHYL AMYL ETHER.mol	628-80-8
  NIST    11121313213D 1   1.00000  -312.28527
Copyright by the U.S. Sec. Commerce on behalf of U.S.A. All rights reserved.
 21 20  0  0  0  0  0  0  0  0999 V2000
   34.9590   -0.0065   -0.0001 C    0  0  0  0  0  0  0  0  0  0  0  0
   36.3266    0.6873    0.0001 C    0  0  0  0  0  0  0  0  0  0  0  0
   37.4905   -0.2956   -0.0000 C    0  0  0  0  0  0  0  0  0  0  0  0
   33.7810    0.9764    0.0001 C    0  0  0  0  0  0  0  0  0  0  0  0
   38.7040    0.4347    0.0002 O    0  0  0  0  0  0  0  0  0  0  0  0
   32.4154    0.2821   -0.0001 C    0  0  0  0  0  0  0  0  0  0  0  0
   39.8416   -0.3976    0.0001 C    0  0  0  0  0  0  0  0  0  0  0  0
   34.8798   -0.6637   -0.8790 H    0  0  0  0  0  0  0  0  0  0  0  0
   34.8798   -0.6641    0.8786 H    0  0  0  0  0  0  0  0  0  0  0  0
   36.4199    1.3370    0.8803 H    0  0  0  0  0  0  0  0  0  0  0  0
   36.4200    1.3374   -0.8797 H    0  0  0  0  0  0  0  0  0  0  0  0
   37.4405   -0.9521   -0.8876 H    0  0  0  0  0  0  0  0  0  0  0  0
   37.4405   -0.9524    0.8873 H    0  0  0  0  0  0  0  0  0  0  0  0
   33.8584    1.6329    0.8782 H    0  0  0  0  0  0  0  0  0  0  0  0
   33.8585    1.6333   -0.8778 H    0  0  0  0  0  0  0  0  0  0  0  0
   31.5965    1.0106   -0.0000 H    0  0  0  0  0  0  0  0  0  0  0  0
   32.2940   -0.3548   -0.8850 H    0  0  0  0  0  0  0  0  0  0  0  0
   32.2940   -0.3552    0.8845 H    0  0  0  0  0  0  0  0  0  0  0  0
   40.7200    0.2536    0.0002 H    0  0  0  0  0  0  0  0  0  0  0  0
   39.8772   -1.0443    0.8926 H    0  0  0  0  0  0  0  0  0  0  0  0
   39.8773   -1.0439   -0.8927 H    0  0  0  0  0  0  0  0  0  0  0  0
  1  2  1  0
  1  4  1  0
  2  3  1  0
  3  5  1  0
  4  6  1  0
  5  7  1  0
  1  8  1  0
  1  9  1  0
  2 10  1  0
  2 11  1  0
  3 12  1  0
  3 13  1  0
  4 14  1  0
  4 15  1  0
  6 16  1  0
  6 17  1  0
  6 18  1  0
  7 19  1  0
  7 20  1  0
  7 21  1  0
M  END
