  METHYL BENZOATE.mol	93-58-3
  NIST    06221422283D 1   1.00000  -460.12876
Copyright by the U.S. Sec. Commerce on behalf of U.S.A. All rights reserved.
 18 18  0  0  0  0  0  0  0  0999 V2000
    0.9454    3.2305   -0.2160 C    0  0  0  0  0  0  0  0  0  0  0  0
    0.5729    1.8991    0.1693 O    0  0  0  0  0  0  0  0  0  0  0  0
    0.0432    1.1399   -0.8188 C    0  0  0  0  0  0  0  0  0  0  0  0
   -0.1112    1.5467   -1.9541 O    0  0  0  0  0  0  0  0  0  0  0  0
   -0.3199   -0.2288   -0.3545 C    0  0  0  0  0  0  0  0  0  0  0  0
   -0.1218   -0.6516    0.9674 C    0  0  0  0  0  0  0  0  0  0  0  0
   -0.8773   -1.1094   -1.2916 C    0  0  0  0  0  0  0  0  0  0  0  0
   -0.4797   -1.9451    1.3438 C    0  0  0  0  0  0  0  0  0  0  0  0
   -1.0347   -2.8200    0.4069 C    0  0  0  0  0  0  0  0  0  0  0  0
   -1.2332   -2.4008   -0.9114 C    0  0  0  0  0  0  0  0  0  0  0  0
    1.7056    3.2048   -1.0013 H    0  0  0  0  0  0  0  0  0  0  0  0
    0.0759    3.7820   -0.5836 H    0  0  0  0  0  0  0  0  0  0  0  0
    1.3419    3.6958    0.6871 H    0  0  0  0  0  0  0  0  0  0  0  0
    0.3101    0.0324    1.6893 H    0  0  0  0  0  0  0  0  0  0  0  0
   -1.0216   -0.7612   -2.3091 H    0  0  0  0  0  0  0  0  0  0  0  0
   -0.3255   -2.2712    2.3688 H    0  0  0  0  0  0  0  0  0  0  0  0
   -1.3127   -3.8279    0.7039 H    0  0  0  0  0  0  0  0  0  0  0  0
   -1.6650   -3.0808   -1.6405 H    0  0  0  0  0  0  0  0  0  0  0  0
  1  2  1  0  0  0  0
  1 11  1  0  0  0  0
  1 12  1  0  0  0  0
  1 13  1  0  0  0  0
  2  3  1  0  0  0  0
  3  4  2  0  0  0  0
  3  5  1  0  0  0  0
  5  6  1  0  0  0  0
  5  7  2  0  0  0  0
  6  8  2  0  0  0  0
  6 14  1  0  0  0  0
  7 15  1  0  0  0  0
  8  9  1  0  0  0  0
  8 16  1  0  0  0  0
  9 10  2  0  0  0  0
  9 17  1  0  0  0  0
 10  7  1  0  0  0  0
 10 18  1  0  0  0  0
M  END
