  METHYL NITRATE.mol	598-58-3
  NIST    07011508063D 1   1.00000  -320.18945
Copyright by the U.S. Sec. Commerce on behalf of U.S.A. All rights reserved.
  8  7  0  0  0  0  0  0  0  0999 V2000
    1.9805    1.5099    1.7422 O    0  0  0  0  0  0  0  0  0  0  0  0
    0.7554    1.0860    1.1208 C    0  0  0  0  0  0  0  0  0  0  0  0
    3.1373    1.0868    1.0427 N    0  0  0  0  0  0  0  0  0  0  0  0
    2.9717    0.4356    0.0305 O    0  0  0  0  0  0  0  0  0  0  0  0
    4.1596    1.4473    1.5722 O    0  0  0  0  0  0  0  0  0  0  0  0
   -0.0121    1.4924    1.7815 H    0  0  0  0  0  0  0  0  0  0  0  0
    0.6585    1.5037    0.1159 H    0  0  0  0  0  0  0  0  0  0  0  0
    0.6908   -0.0039    1.0808 H    0  0  0  0  0  0  0  0  0  0  0  0
  1  2  1  0  0  0  0
  1  3  1  0  0  0  0
  2  6  1  0  0  0  0
  2  7  1  0  0  0  0
  2  8  1  0  0  0  0
  3  4  2  0  0  0  0
  3  5  2  0  0  0  0
M  END
