  METHYL DIETHANOLAMINE.mol	105-59-9
  NIST    06271412373D 1   1.00000  -403.50698
Copyright by the U.S. Sec. Commerce on behalf of U.S.A. All rights reserved.
 21 20  0  0  0  0  0  0  0  0999 V2000
   16.9139   29.9971   -0.1878 C    0  0  0  0  0  0  0  0  0  0  0  0
   15.7016   30.8601    0.1542 C    0  0  0  0  0  0  0  0  0  0  0  0
   18.1505   30.7798   -0.2296 N    0  0  0  0  0  0  0  0  0  0  0  0
   14.5671   29.9994    0.1673 O    0  0  0  0  0  0  0  0  0  0  0  0
   19.3196   29.9631    0.0808 C    0  0  0  0  0  0  0  0  0  0  0  0
   18.3199   31.5139   -1.4865 C    0  0  0  0  0  0  0  0  0  0  0  0
   19.0865   32.8196   -1.2877 C    0  0  0  0  0  0  0  0  0  0  0  0
   19.2017   33.4365   -2.5662 O    0  0  0  0  0  0  0  0  0  0  0  0
   17.0079   29.2379    0.5961 H    0  0  0  0  0  0  0  0  0  0  0  0
   16.7194   29.4548   -1.1311 H    0  0  0  0  0  0  0  0  0  0  0  0
   15.5783   31.6670   -0.5858 H    0  0  0  0  0  0  0  0  0  0  0  0
   15.8692   31.3338    1.1335 H    0  0  0  0  0  0  0  0  0  0  0  0
   13.7903   30.5343    0.3873 H    0  0  0  0  0  0  0  0  0  0  0  0
   20.2212   30.5836    0.0873 H    0  0  0  0  0  0  0  0  0  0  0  0
   19.2114   29.5241    1.0781 H    0  0  0  0  0  0  0  0  0  0  0  0
   19.4811   29.1416   -0.6440 H    0  0  0  0  0  0  0  0  0  0  0  0
   17.3369   31.7690   -1.8937 H    0  0  0  0  0  0  0  0  0  0  0  0
   18.8318   30.9077   -2.2562 H    0  0  0  0  0  0  0  0  0  0  0  0
   20.0786   32.6221   -0.8519 H    0  0  0  0  0  0  0  0  0  0  0  0
   18.5340   33.4514   -0.5756 H    0  0  0  0  0  0  0  0  0  0  0  0
   19.6830   34.2692   -2.4526 H    0  0  0  0  0  0  0  0  0  0  0  0
  1  2  1  0
  1  3  1  0
  2  4  1  0
  3  5  1  0
  3  6  1  0
  6  7  1  0
  7  8  1  0
  1  9  1  0
  1 10  1  0
  2 11  1  0
  2 12  1  0
  4 13  1  0
  5 14  1  0
  5 15  1  0
  5 16  1  0
  6 17  1  0
  6 18  1  0
  7 19  1  0
  7 20  1  0
  8 21  1  0
M  END
