  METHYL N-PROPYL SULFIDE.mol	3877-15-4
  NIST    08031215083D 1   1.00000  -556.64196
Copyright by the U.S. Sec. Commerce on behalf of U.S.A. All rights reserved.
 15 14  0  0  0  0  0  0  0  0999 V2000
   51.9887   10.0305    0.0001 C    0  0  0  0  0  0  0  0  0  0  0  0
   50.6687    9.2534    0.0000 C    0  0  0  0  0  0  0  0  0  0  0  0
   50.9823    7.4430    0.0002 S    0  0  0  0  0  0  0  0  0  0  0  0
   51.7668   11.5473   -0.0001 C    0  0  0  0  0  0  0  0  0  0  0  0
   49.2609    6.8341    0.0001 C    0  0  0  0  0  0  0  0  0  0  0  0
   52.5778    9.7424    0.8798 H    0  0  0  0  0  0  0  0  0  0  0  0
   52.5780    9.7423   -0.8795 H    0  0  0  0  0  0  0  0  0  0  0  0
   50.0763    9.5108   -0.8869 H    0  0  0  0  0  0  0  0  0  0  0  0
   50.0761    9.5109    0.8867 H    0  0  0  0  0  0  0  0  0  0  0  0
   52.7229   12.0821   -0.0001 H    0  0  0  0  0  0  0  0  0  0  0  0
   51.2051   11.8681   -0.8858 H    0  0  0  0  0  0  0  0  0  0  0  0
   51.2049   11.8683    0.8854 H    0  0  0  0  0  0  0  0  0  0  0  0
   49.3064    5.7417    0.0002 H    0  0  0  0  0  0  0  0  0  0  0  0
   48.7218    7.1634    0.8941 H    0  0  0  0  0  0  0  0  0  0  0  0
   48.7220    7.1632   -0.8942 H    0  0  0  0  0  0  0  0  0  0  0  0
  1  2  1  0
  1  4  1  0
  2  3  1  0
  3  5  1  0
  1  6  1  0
  1  7  1  0
  2  8  1  0
  2  9  1  0
  4 10  1  0
  4 11  1  0
  4 12  1  0
  5 13  1  0
  5 14  1  0
  5 15  1  0
M  END
