  MONOBROMOACETIC ACID.mol	79-08-3
  NIST    06201314153D 1   1.00000 -2800.17470
Copyright by the U.S. Sec. Commerce on behalf of U.S.A. All rights reserved.
  8  7  0  0  0  0  0  0  0  0999 V2000
    1.9534    1.7458    0.0106 O    0  0  0  0  0  0  0  0  0  0  0  0
    1.3266    0.5650   -0.0592 C    0  0  0  0  0  0  0  0  0  0  0  0
    0.1251    0.4641   -0.0535 O    0  0  0  0  0  0  0  0  0  0  0  0
    2.1605   -0.7166   -0.1505 C    0  0  0  0  0  0  0  0  0  0  0  0
    4.1247   -0.4604   -0.1509 Br   0  0  0  0  0  0  0  0  0  0  0  0
    2.9213    1.6074   -0.0078 H    0  0  0  0  0  0  0  0  0  0  0  0
    1.9316   -1.3551    0.7017 H    0  0  0  0  0  0  0  0  0  0  0  0
    1.9164   -1.2387   -1.0749 H    0  0  0  0  0  0  0  0  0  0  0  0
  1  2  1  0
  2  3  2  0
  2  4  1  0
  4  5  1  0
  1  6  1  0
  4  7  1  0
  4  8  1  0
M  END
