  MONOFLUORODICHLOROMETHANE.mol	75-43-4
  NIST    06201314153D 1   1.00000 -1058.92284
Copyright by the U.S. Sec. Commerce on behalf of U.S.A. All rights reserved.
  5  4  0  0  0  0  0  0  0  0999 V2000
    1.7299    1.4826    0.0019 Cl   0  0  0  0  0  0  0  0  0  0  0  0
    0.1688    0.6062   -0.0110 C    0  0  0  0  0  0  0  0  0  0  0  0
   -1.2248    1.7297    0.0019 Cl   0  0  0  0  0  0  0  0  0  0  0  0
    0.1039   -0.1688   -1.1082 F    0  0  0  0  0  0  0  0  0  0  0  0
    0.1176   -0.0063    0.8871 H    0  0  0  0  0  0  0  0  0  0  0  0
  1  2  1  0
  2  3  1  0
  2  4  1  0
  2  5  1  0
M  END
