  MORPHOLINE.mol	110-91-8
  NIST    06111407443D 1   1.00000  -287.79268
Copyright by the U.S. Sec. Commerce on behalf of U.S.A. All rights reserved.
 15 15  0  0  0  0  0  0  0  0999 V2000
   -5.0912    1.8350    1.3173 C    0  0  0  0  0  0  0  0  0  0  0  0
   -5.4873    2.4392   -0.0334 C    0  0  0  0  0  0  0  0  0  0  0  0
   -3.9370    0.9308    1.2202 N    0  0  0  0  0  0  0  0  0  0  0  0
   -5.7097    1.4209   -1.0028 O    0  0  0  0  0  0  0  0  0  0  0  0
   -4.5573    0.6035   -1.1794 C    0  0  0  0  0  0  0  0  0  0  0  0
   -4.1377   -0.0469    0.1423 C    0  0  0  0  0  0  0  0  0  0  0  0
   -4.8664    2.6259    2.0433 H    0  0  0  0  0  0  0  0  0  0  0  0
   -5.9376    1.2556    1.7092 H    0  0  0  0  0  0  0  0  0  0  0  0
   -4.6936    3.1250   -0.3839 H    0  0  0  0  0  0  0  0  0  0  0  0
   -6.4221    3.0062    0.0356 H    0  0  0  0  0  0  0  0  0  0  0  0
   -3.1047    1.4837    1.0100 H    0  0  0  0  0  0  0  0  0  0  0  0
   -4.8251   -0.1462   -1.9320 H    0  0  0  0  0  0  0  0  0  0  0  0
   -3.7238    1.2103   -1.5795 H    0  0  0  0  0  0  0  0  0  0  0  0
   -4.9259   -0.7408    0.4630 H    0  0  0  0  0  0  0  0  0  0  0  0
   -3.2171   -0.6286    0.0114 H    0  0  0  0  0  0  0  0  0  0  0  0
  3  1  1  0
  1  2  1  0
  2  4  1  0
  4  5  1  0
  5  6  1  0
  3  6  1  0
  1  7  1  0
  1  8  1  0
  2  9  1  0
  2 10  1  0
  3 11  1  0
  5 12  1  0
  5 13  1  0
  6 14  1  0
  6 15  1  0
M  END
