  N,N-DIETHYLANILINE.mol	91-66-7
  NIST    06201314153D 1   1.00000  -444.84478
Copyright by the U.S. Sec. Commerce on behalf of U.S.A. All rights reserved.
 26 26  0  0  0  0  0  0  0  0999 V2000
    5.5943    4.9269   -1.3077 C    0  0  0  0  0  0  0  0  0  0  0  0
    6.2022    3.8585   -2.2297 C    0  0  0  0  0  0  0  0  0  0  0  0
    6.9268    2.7901   -1.5500 N    0  0  0  0  0  0  0  0  0  0  0  0
    8.3744    2.9188   -1.4201 C    0  0  0  0  0  0  0  0  0  0  0  0
    6.2456    1.7342   -0.9470 C    0  0  0  0  0  0  0  0  0  0  0  0
    8.8642    3.5085   -0.0883 C    0  0  0  0  0  0  0  0  0  0  0  0
    6.9314    0.7134   -0.2460 C    0  0  0  0  0  0  0  0  0  0  0  0
    4.8368    1.6198   -1.0245 C    0  0  0  0  0  0  0  0  0  0  0  0
    6.2470   -0.3623    0.3143 C    0  0  0  0  0  0  0  0  0  0  0  0
    4.8599   -0.4695    0.2160 C    0  0  0  0  0  0  0  0  0  0  0  0
    4.1686    0.5371   -0.4581 C    0  0  0  0  0  0  0  0  0  0  0  0
    5.0320    5.6623   -1.8961 H    0  0  0  0  0  0  0  0  0  0  0  0
    4.9122    4.4797   -0.5780 H    0  0  0  0  0  0  0  0  0  0  0  0
    6.3745    5.4605   -0.7545 H    0  0  0  0  0  0  0  0  0  0  0  0
    6.9025    4.3360   -2.9236 H    0  0  0  0  0  0  0  0  0  0  0  0
    5.4168    3.4165   -2.8551 H    0  0  0  0  0  0  0  0  0  0  0  0
    8.8374    1.9379   -1.5849 H    0  0  0  0  0  0  0  0  0  0  0  0
    8.7192    3.5531   -2.2440 H    0  0  0  0  0  0  0  0  0  0  0  0
    9.9606    3.5300   -0.0626 H    0  0  0  0  0  0  0  0  0  0  0  0
    8.5019    4.5331    0.0466 H    0  0  0  0  0  0  0  0  0  0  0  0
    8.5145    2.9145    0.7619 H    0  0  0  0  0  0  0  0  0  0  0  0
    8.0078    0.7529   -0.1327 H    0  0  0  0  0  0  0  0  0  0  0  0
    4.2503    2.3783   -1.5284 H    0  0  0  0  0  0  0  0  0  0  0  0
    6.8164   -1.1253    0.8401 H    0  0  0  0  0  0  0  0  0  0  0  0
    4.3319   -1.3083    0.6596 H    0  0  0  0  0  0  0  0  0  0  0  0
    3.0857    0.4891   -0.5461 H    0  0  0  0  0  0  0  0  0  0  0  0
  1  2  1  0
  2  3  1  0
  3  4  1  0
  3  5  1  0
  4  6  1  0
  5  7  1  0
  7  9  2  0
  9 10  1  0
 10 11  2  0
 11  8  1  0
  5  8  2  0
  1 12  1  0
  1 13  1  0
  1 14  1  0
  2 15  1  0
  2 16  1  0
  4 17  1  0
  4 18  1  0
  6 19  1  0
  6 20  1  0
  6 21  1  0
  7 22  1  0
  8 23  1  0
  9 24  1  0
 10 25  1  0
 11 26  1  0
M  END
