  N,N-DIMETHYL-P-TOLUIDINE.mol	99-97-8
  NIST    06201314153D 1   1.00000  -405.53254
Copyright by the U.S. Sec. Commerce on behalf of U.S.A. All rights reserved.
 23 23  0  0  0  0  0  0  0  0999 V2000
    6.6238    4.1616   -1.4189 C    0  0  0  0  0  0  0  0  0  0  0  0
    7.1679    2.9632   -0.8049 N    0  0  0  0  0  0  0  0  0  0  0  0
    8.5935    2.7258   -0.9507 C    0  0  0  0  0  0  0  0  0  0  0  0
    6.3219    1.8729   -0.5915 C    0  0  0  0  0  0  0  0  0  0  0  0
    6.8284    0.6023   -0.2412 C    0  0  0  0  0  0  0  0  0  0  0  0
    4.9198    1.9923   -0.7071 C    0  0  0  0  0  0  0  0  0  0  0  0
    5.9734   -0.4687    0.0045 C    0  0  0  0  0  0  0  0  0  0  0  0
    4.0838    0.9073   -0.4565 C    0  0  0  0  0  0  0  0  0  0  0  0
    4.5825   -0.3473   -0.0896 C    0  0  0  0  0  0  0  0  0  0  0  0
    3.6642   -1.5095    0.2082 C    0  0  0  0  0  0  0  0  0  0  0  0
    7.4121    4.9142   -1.4923 H    0  0  0  0  0  0  0  0  0  0  0  0
    6.2178    3.9861   -2.4295 H    0  0  0  0  0  0  0  0  0  0  0  0
    5.8227    4.5861   -0.8028 H    0  0  0  0  0  0  0  0  0  0  0  0
    9.1011    3.6823   -1.0944 H    0  0  0  0  0  0  0  0  0  0  0  0
    9.0080    2.2685   -0.0449 H    0  0  0  0  0  0  0  0  0  0  0  0
    8.8399    2.0717   -1.8041 H    0  0  0  0  0  0  0  0  0  0  0  0
    7.8968    0.4393   -0.1624 H    0  0  0  0  0  0  0  0  0  0  0  0
    4.4708    2.9342   -0.9998 H    0  0  0  0  0  0  0  0  0  0  0  0
    6.4086   -1.4302    0.2709 H    0  0  0  0  0  0  0  0  0  0  0  0
    3.0089    1.0454   -0.5583 H    0  0  0  0  0  0  0  0  0  0  0  0
    4.1286   -2.4666   -0.0558 H    0  0  0  0  0  0  0  0  0  0  0  0
    3.4043   -1.5612    1.2748 H    0  0  0  0  0  0  0  0  0  0  0  0
    2.7237   -1.4304   -0.3486 H    0  0  0  0  0  0  0  0  0  0  0  0
  1  2  1  0
  2  3  1  0
  2  4  1  0
  9 10  1  0
  4  5  1  0
  5  7  2  0
  7  9  1  0
  9  8  2  0
  8  6  1  0
  4  6  2  0
  1 11  1  0
  1 12  1  0
  1 13  1  0
  3 14  1  0
  3 15  1  0
  3 16  1  0
  5 17  1  0
  6 18  1  0
  7 19  1  0
  8 20  1  0
 10 21  1  0
 10 22  1  0
 10 23  1  0
M  END
