  N-BUTYL PROPIONATE.mol	590-01-2
  NIST    06201314153D 1   1.00000  -425.64934
Copyright by the U.S. Sec. Commerce on behalf of U.S.A. All rights reserved.
 23 22  0  0  0  0  0  0  0  0999 V2000
    2.4805    0.7325   -0.6937 O    0  0  0  0  0  0  0  0  0  0  0  0
    1.8143    1.4666    0.2285 C    0  0  0  0  0  0  0  0  0  0  0  0
    0.5714    2.0890   -0.3803 C    0  0  0  0  0  0  0  0  0  0  0  0
    2.1700    1.5935    1.3809 O    0  0  0  0  0  0  0  0  0  0  0  0
    3.6891    0.0723   -0.2503 C    0  0  0  0  0  0  0  0  0  0  0  0
   -0.1957    2.9683    0.6051 C    0  0  0  0  0  0  0  0  0  0  0  0
    4.9009    0.9940   -0.3419 C    0  0  0  0  0  0  0  0  0  0  0  0
    6.2060    0.2725    0.0215 C    0  0  0  0  0  0  0  0  0  0  0  0
    7.4325    1.1871   -0.0628 C    0  0  0  0  0  0  0  0  0  0  0  0
    0.8812    2.6553   -1.2679 H    0  0  0  0  0  0  0  0  0  0  0  0
   -0.0566    1.2725   -0.7600 H    0  0  0  0  0  0  0  0  0  0  0  0
    3.5436   -0.2840    0.7732 H    0  0  0  0  0  0  0  0  0  0  0  0
    3.7933   -0.7858   -0.9206 H    0  0  0  0  0  0  0  0  0  0  0  0
   -1.0887    3.3866    0.1291 H    0  0  0  0  0  0  0  0  0  0  0  0
   -0.5075    2.3942    1.4825 H    0  0  0  0  0  0  0  0  0  0  0  0
    0.4260    3.7959    0.9599 H    0  0  0  0  0  0  0  0  0  0  0  0
    4.9664    1.3947   -1.3624 H    0  0  0  0  0  0  0  0  0  0  0  0
    4.7471    1.8456    0.3316 H    0  0  0  0  0  0  0  0  0  0  0  0
    6.1249   -0.1365    1.0382 H    0  0  0  0  0  0  0  0  0  0  0  0
    6.3460   -0.5897   -0.6460 H    0  0  0  0  0  0  0  0  0  0  0  0
    8.3490    0.6497    0.2052 H    0  0  0  0  0  0  0  0  0  0  0  0
    7.5620    1.5836   -1.0772 H    0  0  0  0  0  0  0  0  0  0  0  0
    7.3347    2.0417    0.6173 H    0  0  0  0  0  0  0  0  0  0  0  0
  1  2  1  0
  1  5  1  0
  2  3  1  0
  2  4  2  0
  3  6  1  0
  5  7  1  0
  7  8  1  0
  8  9  1  0
  3 10  1  0
  3 11  1  0
  5 12  1  0
  5 13  1  0
  6 14  1  0
  6 15  1  0
  6 16  1  0
  7 17  1  0
  7 18  1  0
  8 19  1  0
  8 20  1  0
  9 21  1  0
  9 22  1  0
  9 23  1  0
M  END
