
 OpenBabel05291910553D

 14 13  0  0  0  0  0  0  0  0999 V2000
    2.3966   -0.0190    1.5238 C   0  0  0  0  0  0  0  0  0  0  0  0
    3.7672   -0.5296    1.8631 C   0  0  0  0  0  0  0  0  0  0  0  0
    2.3392    1.5073    1.6457 C   0  0  0  0  0  0  0  0  0  0  0  0
    4.8325   -0.1364    1.1327 O   0  0  0  0  0  0  0  0  0  0  0  0
    3.9173   -1.3065    2.7944 O   0  0  0  0  0  0  0  0  0  0  0  0
    0.9496    2.0351    1.3005 C   0  0  0  0  0  0  0  0  0  0  0  0
    2.1503   -0.3246    0.4840 H   0  0  0  0  0  0  0  0  0  0  0  0
    1.6479   -0.4708    2.2119 H   0  0  0  0  0  0  0  0  0  0  0  0
    2.5892    1.8073    2.6870 H   0  0  0  0  0  0  0  0  0  0  0  0
    3.0779    1.9684    0.9542 H   0  0  0  0  0  0  0  0  0  0  0  0
    5.7232   -0.4566    1.3344 H   0  0  0  0  0  0  0  0  0  0  0  0
    0.6834    1.7669    0.2559 H   0  0  0  0  0  0  0  0  0  0  0  0
    0.1916    1.6085    1.9916 H   0  0  0  0  0  0  0  0  0  0  0  0
    0.9367    3.1411    1.3979 H   0  0  0  0  0  0  0  0  0  0  0  0
  1  2  1  0  0  0  0
  1  3  1  0  0  0  0
  1  7  1  0  0  0  0
  1  8  1  0  0  0  0
  2  4  1  0  0  0  0
  2  5  2  0  0  0  0
  3  6  1  0  0  0  0
  3  9  1  0  0  0  0
  3 10  1  0  0  0  0
  4 11  1  0  0  0  0
  6 12  1  0  0  0  0
  6 13  1  0  0  0  0
  6 14  1  0  0  0  0
M  END
