  N-BUTYLAMINE.mol	109-73-9
  NIST    06301517413D 1   1.00000  -213.79738
Copyright by the U.S. Sec. Commerce on behalf of U.S.A. All rights reserved.
 16 15  0  0  0  0  0  0  0  0999 V2000
    2.0532    1.6844    1.5045 C    0  0  0  0  0  0  0  0  0  0  0  0
    3.4670    1.2685    1.9283 C    0  0  0  0  0  0  0  0  0  0  0  0
    4.5662    1.8638    1.0462 C    0  0  0  0  0  0  0  0  0  0  0  0
    0.9589    1.0894    2.3967 C    0  0  0  0  0  0  0  0  0  0  0  0
    5.8885    1.3904    1.4759 N    0  0  0  0  0  0  0  0  0  0  0  0
    1.9759    2.7811    1.5140 H    0  0  0  0  0  0  0  0  0  0  0  0
    1.8822    1.3767    0.4630 H    0  0  0  0  0  0  0  0  0  0  0  0
    3.6372    1.5759    2.9721 H    0  0  0  0  0  0  0  0  0  0  0  0
    3.5621    0.1750    1.9109 H    0  0  0  0  0  0  0  0  0  0  0  0
    4.4168    1.5317    0.0103 H    0  0  0  0  0  0  0  0  0  0  0  0
    4.4655    2.9659    1.0381 H    0  0  0  0  0  0  0  0  0  0  0  0
    1.0828    1.4057    3.4398 H    0  0  0  0  0  0  0  0  0  0  0  0
   -0.0392    1.4030    2.0699 H    0  0  0  0  0  0  0  0  0  0  0  0
    0.9867   -0.0070    2.3791 H    0  0  0  0  0  0  0  0  0  0  0  0
    6.6068    1.7713    0.8615 H    0  0  0  0  0  0  0  0  0  0  0  0
    6.0930    1.7596    2.4043 H    0  0  0  0  0  0  0  0  0  0  0  0
  1  2  1  0  0  0  0
  1  4  1  0  0  0  0
  1  6  1  0  0  0  0
  1  7  1  0  0  0  0
  2  3  1  0  0  0  0
  2  8  1  0  0  0  0
  2  9  1  0  0  0  0
  3  5  1  0  0  0  0
  3 10  1  0  0  0  0
  3 11  1  0  0  0  0
  4 12  1  0  0  0  0
  4 13  1  0  0  0  0
  4 14  1  0  0  0  0
  5 15  1  0  0  0  0
  5 16  1  0  0  0  0
M  END
