  N-BUTYLCYCLOPENTANE.mol	2040-95-1
  NIST    07021520123D 1   1.00000  -353.81157
Copyright by the U.S. Sec. Commerce on behalf of U.S.A. All rights reserved.
 27 27  0  0  0  0  0  0  0  0999 V2000
    3.0279    4.2170    1.6616 C    0  0  0  0  0  0  0  0  0  0  0  0
    4.1450    3.4802    0.9015 C    0  0  0  0  0  0  0  0  0  0  0  0
    4.9070    2.4168    1.7033 C    0  0  0  0  0  0  0  0  0  0  0  0
    1.8522    3.3307    2.0965 C    0  0  0  0  0  0  0  0  0  0  0  0
    5.6748    2.9516    2.9345 C    0  0  0  0  0  0  0  0  0  0  0  0
    6.0102    1.6965    0.9046 C    0  0  0  0  0  0  0  0  0  0  0  0
    0.7313    4.1211    2.7801 C    0  0  0  0  0  0  0  0  0  0  0  0
    6.8082    1.9225    3.2126 C    0  0  0  0  0  0  0  0  0  0  0  0
    6.8300    0.9694    1.9843 C    0  0  0  0  0  0  0  0  0  0  0  0
    3.4496    4.7182    2.5447 H    0  0  0  0  0  0  0  0  0  0  0  0
    2.6410    5.0201    1.0178 H    0  0  0  0  0  0  0  0  0  0  0  0
    3.7133    3.0108    0.0047 H    0  0  0  0  0  0  0  0  0  0  0  0
    4.8712    4.2216    0.5361 H    0  0  0  0  0  0  0  0  0  0  0  0
    4.1970    1.6484    2.0454 H    0  0  0  0  0  0  0  0  0  0  0  0
    2.2073    2.5462    2.7781 H    0  0  0  0  0  0  0  0  0  0  0  0
    1.4487    2.8093    1.2164 H    0  0  0  0  0  0  0  0  0  0  0  0
    6.1062    3.9319    2.6891 H    0  0  0  0  0  0  0  0  0  0  0  0
    5.0255    3.1030    3.8034 H    0  0  0  0  0  0  0  0  0  0  0  0
    5.6121    1.0214    0.1377 H    0  0  0  0  0  0  0  0  0  0  0  0
    6.6340    2.4421    0.3896 H    0  0  0  0  0  0  0  0  0  0  0  0
   -0.0963    3.4678    3.0796 H    0  0  0  0  0  0  0  0  0  0  0  0
    1.0975    4.6287    3.6811 H    0  0  0  0  0  0  0  0  0  0  0  0
    0.3241    4.8900    2.1118 H    0  0  0  0  0  0  0  0  0  0  0  0
    7.7705    2.4313    3.3363 H    0  0  0  0  0  0  0  0  0  0  0  0
    6.6310    1.3659    4.1393 H    0  0  0  0  0  0  0  0  0  0  0  0
    6.3408    0.0201    2.2367 H    0  0  0  0  0  0  0  0  0  0  0  0
    7.8461    0.7251    1.6563 H    0  0  0  0  0  0  0  0  0  0  0  0
  1  2  1  0  0  0  0
  1  4  1  0  0  0  0
  1 10  1  0  0  0  0
  1 11  1  0  0  0  0
  2  3  1  0  0  0  0
  2 12  1  0  0  0  0
  2 13  1  0  0  0  0
  3  5  1  0  0  0  0
  3 14  1  0  0  0  0
  4  7  1  0  0  0  0
  4 15  1  0  0  0  0
  4 16  1  0  0  0  0
  5  8  1  0  0  0  0
  5 17  1  0  0  0  0
  5 18  1  0  0  0  0
  6  3  1  0  0  0  0
  6 19  1  0  0  0  0
  6 20  1  0  0  0  0
  7 21  1  0  0  0  0
  7 22  1  0  0  0  0
  7 23  1  0  0  0  0
  8  9  1  0  0  0  0
  8 24  1  0  0  0  0
  8 25  1  0  0  0  0
  9  6  1  0  0  0  0
  9 26  1  0  0  0  0
  9 27  1  0  0  0  0
M  END
