
 OpenBabel11181910243D

 20 19  0  0  0  0  0  0  0  0999 V2000
    4.0198   -0.1095   -1.8099 O   0  0  0  0  0  0  0  0  0  0  0  0
    3.3562    0.1312   -2.9965 C   0  0  0  0  0  0  0  0  0  0  0  0
    4.7623    0.8279   -1.1673 C   0  0  0  0  0  0  0  0  0  0  0  0
    2.6241   -1.1361   -3.4353 C   0  0  0  0  0  0  0  0  0  0  0  0
    5.4442    0.4708    0.1142 C   0  0  0  0  0  0  0  0  0  0  0  0
    4.8781    1.9567   -1.6249 O   0  0  0  0  0  0  0  0  0  0  0  0
    1.8722   -0.9118   -4.7522 C   0  0  0  0  0  0  0  0  0  0  0  0
    1.1409   -2.1770   -5.1911 C   0  0  0  0  0  0  0  0  0  0  0  0
    4.0888    0.4274   -3.7800 H   0  0  0  0  0  0  0  0  0  0  0  0
    2.6209    0.9539   -2.8521 H   0  0  0  0  0  0  0  0  0  0  0  0
    3.3651   -1.9554   -3.5664 H   0  0  0  0  0  0  0  0  0  0  0  0
    1.9024   -1.4307   -2.6418 H   0  0  0  0  0  0  0  0  0  0  0  0
    6.1500   -0.3672   -0.0632 H   0  0  0  0  0  0  0  0  0  0  0  0
    6.0096    1.3388    0.5159 H   0  0  0  0  0  0  0  0  0  0  0  0
    4.6862    0.1579    0.8620 H   0  0  0  0  0  0  0  0  0  0  0  0
    1.1293   -0.0944   -4.6240 H   0  0  0  0  0  0  0  0  0  0  0  0
    2.5913   -0.6188   -5.5481 H   0  0  0  0  0  0  0  0  0  0  0  0
    0.3987   -2.4804   -4.4222 H   0  0  0  0  0  0  0  0  0  0  0  0
    0.6062   -1.9860   -6.1453 H   0  0  0  0  0  0  0  0  0  0  0  0
    1.8636   -3.0060   -5.3481 H   0  0  0  0  0  0  0  0  0  0  0  0
  1  2  1  0  0  0  0
  1  3  1  0  0  0  0
  2  4  1  0  0  0  0
  2  9  1  0  0  0  0
  2 10  1  0  0  0  0
  3  5  1  0  0  0  0
  3  6  2  0  0  0  0
  4  7  1  0  0  0  0
  4 11  1  0  0  0  0
  4 12  1  0  0  0  0
  5 13  1  0  0  0  0
  5 14  1  0  0  0  0
  5 15  1  0  0  0  0
  7  8  1  0  0  0  0
  7 16  1  0  0  0  0
  7 17  1  0  0  0  0
  8 18  1  0  0  0  0
  8 19  1  0  0  0  0
  8 20  1  0  0  0  0
M  END
