  N-BUTYL FORMATE.mol	592-84-7
  NIST    06201314163D 1   1.00000  -347.00233
Copyright by the U.S. Sec. Commerce on behalf of U.S.A. All rights reserved.
 17 16  0  0  0  0  0  0  0  0999 V2000
    1.9909    0.4893    0.1692 C    0  0  0  0  0  0  0  0  0  0  0  0
    3.3716   -0.1065    0.4196 C    0  0  0  0  0  0  0  0  0  0  0  0
    3.2858   -1.5253    0.6522 O    0  0  0  0  0  0  0  0  0  0  0  0
    2.0284    2.0164    0.0208 C    0  0  0  0  0  0  0  0  0  0  0  0
    3.6165   -2.3534   -0.3590 C    0  0  0  0  0  0  0  0  0  0  0  0
    0.6441    2.6219   -0.2325 C    0  0  0  0  0  0  0  0  0  0  0  0
    3.5306   -3.5482   -0.2803 O    0  0  0  0  0  0  0  0  0  0  0  0
    1.5644    0.0354   -0.7362 H    0  0  0  0  0  0  0  0  0  0  0  0
    1.3323    0.2067    1.0004 H    0  0  0  0  0  0  0  0  0  0  0  0
    3.8279    0.3146    1.3206 H    0  0  0  0  0  0  0  0  0  0  0  0
    4.0470    0.0914   -0.4246 H    0  0  0  0  0  0  0  0  0  0  0  0
    2.4608    2.4596    0.9288 H    0  0  0  0  0  0  0  0  0  0  0  0
    2.7029    2.2888   -0.8033 H    0  0  0  0  0  0  0  0  0  0  0  0
    3.9817   -1.8161   -1.2569 H    0  0  0  0  0  0  0  0  0  0  0  0
    0.7003    3.7114   -0.3310 H    0  0  0  0  0  0  0  0  0  0  0  0
    0.2005    2.2255   -1.1538 H    0  0  0  0  0  0  0  0  0  0  0  0
   -0.0435    2.3952    0.5910 H    0  0  0  0  0  0  0  0  0  0  0  0
  1  2  1  0
  1  4  1  0
  2  3  1  0
  3  5  1  0
  4  6  1  0
  5  7  2  0
  1  8  1  0
  1  9  1  0
  2 10  1  0
  2 11  1  0
  4 12  1  0
  4 13  1  0
  5 14  1  0
  6 15  1  0
  6 16  1  0
  6 17  1  0
M  END
