  N-BUTYL METHACRYLATE.mol	97-88-1
  NIST    06201314153D 1   1.00000  -463.73283
Copyright by the U.S. Sec. Commerce on behalf of U.S.A. All rights reserved.
 24 23  0  0  0  0  0  0  0  0999 V2000
    0.3400    1.4356   -1.0032 C    0  0  0  0  0  0  0  0  0  0  0  0
    1.0846    0.7658   -0.1146 C    0  0  0  0  0  0  0  0  0  0  0  0
    1.0828   -0.7292   -0.0675 C    0  0  0  0  0  0  0  0  0  0  0  0
    1.9731    1.4273    0.9058 C    0  0  0  0  0  0  0  0  0  0  0  0
    1.7328   -1.3679    0.7393 O    0  0  0  0  0  0  0  0  0  0  0  0
    0.2939   -1.2952   -1.0103 O    0  0  0  0  0  0  0  0  0  0  0  0
    0.2363   -2.7394   -1.0229 C    0  0  0  0  0  0  0  0  0  0  0  0
   -0.8254   -3.2684   -0.0639 C    0  0  0  0  0  0  0  0  0  0  0  0
   -0.9575   -4.7959   -0.1330 C    0  0  0  0  0  0  0  0  0  0  0  0
   -2.0247   -5.3431    0.8204 C    0  0  0  0  0  0  0  0  0  0  0  0
    0.3428    2.5222   -1.0304 H    0  0  0  0  0  0  0  0  0  0  0  0
   -0.2888    0.9218   -1.7213 H    0  0  0  0  0  0  0  0  0  0  0  0
    1.9253    2.5164    0.8174 H    0  0  0  0  0  0  0  0  0  0  0  0
    1.6812    1.1415    1.9226 H    0  0  0  0  0  0  0  0  0  0  0  0
    3.0143    1.1082    0.7836 H    0  0  0  0  0  0  0  0  0  0  0  0
   -0.0037   -2.9941   -2.0593 H    0  0  0  0  0  0  0  0  0  0  0  0
    1.2240   -3.1353   -0.7720 H    0  0  0  0  0  0  0  0  0  0  0  0
   -0.5612   -2.9640    0.9560 H    0  0  0  0  0  0  0  0  0  0  0  0
   -1.7882   -2.7976   -0.3036 H    0  0  0  0  0  0  0  0  0  0  0  0
   -1.1984   -5.0973   -1.1626 H    0  0  0  0  0  0  0  0  0  0  0  0
    0.0125   -5.2557    0.1019 H    0  0  0  0  0  0  0  0  0  0  0  0
   -2.0939   -6.4348    0.7558 H    0  0  0  0  0  0  0  0  0  0  0  0
   -1.7953   -5.0835    1.8608 H    0  0  0  0  0  0  0  0  0  0  0  0
   -3.0139   -4.9312    0.5864 H    0  0  0  0  0  0  0  0  0  0  0  0
  1  2  2  0
  2  3  1  0
  2  4  1  0
  3  5  2  0
  3  6  1  0
  6  7  1  0
  7  8  1  0
  8  9  1  0
  9 10  1  0
  1 11  1  0
  1 12  1  0
  4 13  1  0
  4 14  1  0
  4 15  1  0
  7 16  1  0
  7 17  1  0
  8 18  1  0
  8 19  1  0
  9 20  1  0
  9 21  1  0
 10 22  1  0
 10 23  1  0
 10 24  1  0
M  END
