  N-CAPROYL CHLORIDE.mol	142-61-0
  NIST    08011311463D 1   1.00000     0.00000
Copyright by the U.S. Sec. Commerce on behalf of U.S.A. All rights reserved.
 19 18  0  0  0  0  0  0  0  0999 V2000
   35.0471   30.0779   -0.0001 C    0  0  0  0  0  0  0  0  0  0  0  0
   36.3344   29.2474    0.0001 C    0  0  0  0  0  0  0  0  0  0  0  0
   35.3085   31.5640    0.0001 C    0  0  0  0  0  0  0  0  0  0  0  0
   36.0530   27.7395   -0.0001 C    0  0  0  0  0  0  0  0  0  0  0  0
   33.7441   32.5327   -0.0002 Cl   0  0  0  0  0  0  0  0  0  0  0  0
   36.3543   32.1268    0.0003 O    0  0  0  0  0  0  0  0  0  0  0  0
   37.3306   26.8900    0.0001 C    0  0  0  0  0  0  0  0  0  0  0  0
   37.0512   25.3838   -0.0001 C    0  0  0  0  0  0  0  0  0  0  0  0
   34.4202   29.8561   -0.8737 H    0  0  0  0  0  0  0  0  0  0  0  0
   34.4199   29.8560    0.8732 H    0  0  0  0  0  0  0  0  0  0  0  0
   36.9365   29.5156    0.8770 H    0  0  0  0  0  0  0  0  0  0  0  0
   36.9369   29.5157   -0.8765 H    0  0  0  0  0  0  0  0  0  0  0  0
   35.4447   27.4796   -0.8792 H    0  0  0  0  0  0  0  0  0  0  0  0
   35.4444   27.4795    0.8787 H    0  0  0  0  0  0  0  0  0  0  0  0
   37.9375   27.1508    0.8784 H    0  0  0  0  0  0  0  0  0  0  0  0
   37.9379   27.1509   -0.8779 H    0  0  0  0  0  0  0  0  0  0  0  0
   37.9827   24.8068    0.0001 H    0  0  0  0  0  0  0  0  0  0  0  0
   36.4755   25.0865   -0.8852 H    0  0  0  0  0  0  0  0  0  0  0  0
   36.4751   25.0864    0.8847 H    0  0  0  0  0  0  0  0  0  0  0  0
  1  2  1  0
  1  3  1  0
  2  4  1  0
  3  5  1  0
  3  6  2  0
  4  7  1  0
  7  8  1  0
  1  9  1  0
  1 10  1  0
  2 11  1  0
  2 12  1  0
  4 13  1  0
  4 14  1  0
  7 15  1  0
  7 16  1  0
  8 17  1  0
  8 18  1  0
  8 19  1  0
M  END
