  N-DOTRIACONTANE.mol	544-85-4
  NIST    07171500003D 1   1.00000 -1259.23008
Copyright by the U.S. Sec. Commerce on behalf of U.S.A. All rights reserved.
 98 97  0  0  0  0  0  0  0  0999 V2000
   15.9977    3.3124    8.1573 C    0  0  0  0  0  0  0  0  0  0  0  0
   14.5784    2.7774    7.9219 C    0  0  0  0  0  0  0  0  0  0  0  0
   13.6046    3.1398    9.0518 C    0  0  0  0  0  0  0  0  0  0  0  0
   16.9826    2.9532    7.0372 C    0  0  0  0  0  0  0  0  0  0  0  0
   12.1874    2.5475    8.9439 C    0  0  0  0  0  0  0  0  0  0  0  0
   18.3997    3.4935    7.2687 C    0  0  0  0  0  0  0  0  0  0  0  0
   11.3424    3.0246    7.7397 C    0  0  0  0  0  0  0  0  0  0  0  0
   19.3872    3.1240    6.1542 C    0  0  0  0  0  0  0  0  0  0  0  0
   11.4136    2.1171    6.4985 C    0  0  0  0  0  0  0  0  0  0  0  0
   20.8025    3.6705    6.3822 C    0  0  0  0  0  0  0  0  0  0  0  0
   10.5603    2.5931    5.2992 C    0  0  0  0  0  0  0  0  0  0  0  0
   21.7922    3.2953    5.2715 C    0  0  0  0  0  0  0  0  0  0  0  0
    9.1540    1.9761    5.1877 C    0  0  0  0  0  0  0  0  0  0  0  0
   23.2057    3.8474    5.4973 C    0  0  0  0  0  0  0  0  0  0  0  0
    8.1798    2.3018    6.3283 C    0  0  0  0  0  0  0  0  0  0  0  0
   24.1972    3.4708    4.3887 C    0  0  0  0  0  0  0  0  0  0  0  0
    6.7715    1.7383    6.0936 C    0  0  0  0  0  0  0  0  0  0  0  0
   25.6088    4.0281    4.6134 C    0  0  0  0  0  0  0  0  0  0  0  0
    5.7870    2.0519    7.2276 C    0  0  0  0  0  0  0  0  0  0  0  0
   26.6016    3.6533    3.5054 C    0  0  0  0  0  0  0  0  0  0  0  0
    4.3811    1.4838    6.9939 C    0  0  0  0  0  0  0  0  0  0  0  0
   28.0114    4.2153    3.7299 C    0  0  0  0  0  0  0  0  0  0  0  0
    3.3944    1.7989    8.1259 C    0  0  0  0  0  0  0  0  0  0  0  0
   29.0051    3.8442    2.6215 C    0  0  0  0  0  0  0  0  0  0  0  0
    1.9917    1.2233    7.8836 C    0  0  0  0  0  0  0  0  0  0  0  0
   30.4134    4.4100    2.8463 C    0  0  0  0  0  0  0  0  0  0  0  0
    0.9514    1.5811    8.9581 C    0  0  0  0  0  0  0  0  0  0  0  0
   31.4080    4.0432    1.7375 C    0  0  0  0  0  0  0  0  0  0  0  0
    1.2215    0.9797   10.3447 C    0  0  0  0  0  0  0  0  0  0  0  0
   32.8155    4.6104    1.9633 C    0  0  0  0  0  0  0  0  0  0  0  0
    0.1182    1.2990   11.3591 C    0  0  0  0  0  0  0  0  0  0  0  0
   33.8025    4.2424    0.8507 C    0  0  0  0  0  0  0  0  0  0  0  0
   15.9587    4.4063    8.2701 H    0  0  0  0  0  0  0  0  0  0  0  0
   16.3785    2.9236    9.1135 H    0  0  0  0  0  0  0  0  0  0  0  0
   14.2058    3.1698    6.9658 H    0  0  0  0  0  0  0  0  0  0  0  0
   14.6169    1.6835    7.8098 H    0  0  0  0  0  0  0  0  0  0  0  0
   14.0417    2.8120   10.0063 H    0  0  0  0  0  0  0  0  0  0  0  0
   13.5262    4.2354    9.1183 H    0  0  0  0  0  0  0  0  0  0  0  0
   17.0247    1.8591    6.9287 H    0  0  0  0  0  0  0  0  0  0  0  0
   16.5996    3.3373    6.0799 H    0  0  0  0  0  0  0  0  0  0  0  0
   12.2508    1.4493    8.9331 H    0  0  0  0  0  0  0  0  0  0  0  0
   11.6567    2.8041    9.8704 H    0  0  0  0  0  0  0  0  0  0  0  0
   18.7801    3.1160    8.2296 H    0  0  0  0  0  0  0  0  0  0  0  0
   18.3584    4.5884    7.3692 H    0  0  0  0  0  0  0  0  0  0  0  0
   10.2950    3.1115    8.0522 H    0  0  0  0  0  0  0  0  0  0  0  0
   11.6514    4.0426    7.4585 H    0  0  0  0  0  0  0  0  0  0  0  0
   19.0047    3.4966    5.1923 H    0  0  0  0  0  0  0  0  0  0  0  0
   19.4322    2.0289    6.0578 H    0  0  0  0  0  0  0  0  0  0  0  0
   12.4596    2.0333    6.1814 H    0  0  0  0  0  0  0  0  0  0  0  0
   11.1087    1.0983    6.7809 H    0  0  0  0  0  0  0  0  0  0  0  0
   21.1833    3.3021    7.3465 H    0  0  0  0  0  0  0  0  0  0  0  0
   20.7578    4.7661    6.4736 H    0  0  0  0  0  0  0  0  0  0  0  0
   10.4767    3.6897    5.3230 H    0  0  0  0  0  0  0  0  0  0  0  0
   11.0940    2.3571    4.3691 H    0  0  0  0  0  0  0  0  0  0  0  0
   21.4098    3.6601    4.3065 H    0  0  0  0  0  0  0  0  0  0  0  0
   21.8402    2.1997    5.1829 H    0  0  0  0  0  0  0  0  0  0  0  0
    8.7058    2.3101    4.2405 H    0  0  0  0  0  0  0  0  0  0  0  0
    9.2530    0.8833    5.1039 H    0  0  0  0  0  0  0  0  0  0  0  0
   23.1573    4.9432    5.5838 H    0  0  0  0  0  0  0  0  0  0  0  0
   23.5873    3.4846    6.4634 H    0  0  0  0  0  0  0  0  0  0  0  0
    8.5671    1.9047    7.2767 H    0  0  0  0  0  0  0  0  0  0  0  0
    8.1178    3.3929    6.4556 H    0  0  0  0  0  0  0  0  0  0  0  0
   23.8143    3.8309    3.4221 H    0  0  0  0  0  0  0  0  0  0  0  0
   24.2485    2.3750    4.3043 H    0  0  0  0  0  0  0  0  0  0  0  0
    6.8354    0.6480    5.9595 H    0  0  0  0  0  0  0  0  0  0  0  0
    6.3743    2.1361    5.1478 H    0  0  0  0  0  0  0  0  0  0  0  0
   25.5566    5.1239    4.6981 H    0  0  0  0  0  0  0  0  0  0  0  0
   25.9917    3.6683    5.5802 H    0  0  0  0  0  0  0  0  0  0  0  0
    6.1855    1.6565    8.1739 H    0  0  0  0  0  0  0  0  0  0  0  0
    5.7205    3.1422    7.3597 H    0  0  0  0  0  0  0  0  0  0  0  0
   26.6564    2.5576    3.4221 H    0  0  0  0  0  0  0  0  0  0  0  0
   26.2177    4.0112    2.5384 H    0  0  0  0  0  0  0  0  0  0  0  0
    3.9833    1.8766    6.0462 H    0  0  0  0  0  0  0  0  0  0  0  0
    4.4481    0.3932    6.8642 H    0  0  0  0  0  0  0  0  0  0  0  0
   28.3957    3.8566    4.6964 H    0  0  0  0  0  0  0  0  0  0  0  0
   27.9554    5.3109    3.8148 H    0  0  0  0  0  0  0  0  0  0  0  0
    3.3201    2.8900    8.2499 H    0  0  0  0  0  0  0  0  0  0  0  0
    3.8004    1.4128    9.0710 H    0  0  0  0  0  0  0  0  0  0  0  0
   29.0630    2.7487    2.5373 H    0  0  0  0  0  0  0  0  0  0  0  0
   28.6202    4.2018    1.6548 H    0  0  0  0  0  0  0  0  0  0  0  0
    2.0594    0.1285    7.7958 H    0  0  0  0  0  0  0  0  0  0  0  0
    1.6282    1.5818    6.9098 H    0  0  0  0  0  0  0  0  0  0  0  0
   30.7989    4.0509    3.8123 H    0  0  0  0  0  0  0  0  0  0  0  0
   30.3544    5.5053    2.9327 H    0  0  0  0  0  0  0  0  0  0  0  0
    0.8821    2.6760    9.0462 H    0  0  0  0  0  0  0  0  0  0  0  0
   -0.0377    1.2431    8.6164 H    0  0  0  0  0  0  0  0  0  0  0  0
   31.0236    4.4023    0.7710 H    0  0  0  0  0  0  0  0  0  0  0  0
   31.4688    2.9480    1.6505 H    0  0  0  0  0  0  0  0  0  0  0  0
    2.1820    1.3455   10.7306 H    0  0  0  0  0  0  0  0  0  0  0  0
    1.3267   -0.1109   10.2492 H    0  0  0  0  0  0  0  0  0  0  0  0
   32.7544    5.7046    2.0514 H    0  0  0  0  0  0  0  0  0  0  0  0
   33.2005    4.2498    2.9279 H    0  0  0  0  0  0  0  0  0  0  0  0
    0.0094    2.3818   11.4985 H    0  0  0  0  0  0  0  0  0  0  0  0
    0.3343    0.8580   12.3390 H    0  0  0  0  0  0  0  0  0  0  0  0
   -0.8521    0.9108   11.0254 H    0  0  0  0  0  0  0  0  0  0  0  0
   33.9107    3.1544    0.7607 H    0  0  0  0  0  0  0  0  0  0  0  0
   34.7972    4.6609    1.0423 H    0  0  0  0  0  0  0  0  0  0  0  0
   33.4633    4.6213   -0.1214 H    0  0  0  0  0  0  0  0  0  0  0  0
  1  2  1  0  0  0  0
  1  4  1  0  0  0  0
  1 33  1  0  0  0  0
  1 34  1  0  0  0  0
  2  3  1  0  0  0  0
  2 35  1  0  0  0  0
  2 36  1  0  0  0  0
  3  5  1  0  0  0  0
  3 37  1  0  0  0  0
  3 38  1  0  0  0  0
  4  6  1  0  0  0  0
  4 39  1  0  0  0  0
  4 40  1  0  0  0  0
  5  7  1  0  0  0  0
  5 41  1  0  0  0  0
  5 42  1  0  0  0  0
  6  8  1  0  0  0  0
  6 43  1  0  0  0  0
  6 44  1  0  0  0  0
  7  9  1  0  0  0  0
  7 45  1  0  0  0  0
  7 46  1  0  0  0  0
  8 10  1  0  0  0  0
  8 47  1  0  0  0  0
  8 48  1  0  0  0  0
  9 11  1  0  0  0  0
  9 49  1  0  0  0  0
  9 50  1  0  0  0  0
 10 12  1  0  0  0  0
 10 51  1  0  0  0  0
 10 52  1  0  0  0  0
 11 13  1  0  0  0  0
 11 53  1  0  0  0  0
 11 54  1  0  0  0  0
 12 14  1  0  0  0  0
 12 55  1  0  0  0  0
 12 56  1  0  0  0  0
 13 15  1  0  0  0  0
 13 57  1  0  0  0  0
 13 58  1  0  0  0  0
 14 16  1  0  0  0  0
 14 59  1  0  0  0  0
 14 60  1  0  0  0  0
 15 17  1  0  0  0  0
 15 61  1  0  0  0  0
 15 62  1  0  0  0  0
 16 18  1  0  0  0  0
 16 63  1  0  0  0  0
 16 64  1  0  0  0  0
 17 19  1  0  0  0  0
 17 65  1  0  0  0  0
 17 66  1  0  0  0  0
 18 20  1  0  0  0  0
 18 67  1  0  0  0  0
 18 68  1  0  0  0  0
 19 21  1  0  0  0  0
 19 69  1  0  0  0  0
 19 70  1  0  0  0  0
 20 22  1  0  0  0  0
 20 71  1  0  0  0  0
 20 72  1  0  0  0  0
 21 23  1  0  0  0  0
 21 73  1  0  0  0  0
 21 74  1  0  0  0  0
 22 24  1  0  0  0  0
 22 75  1  0  0  0  0
 22 76  1  0  0  0  0
 23 25  1  0  0  0  0
 23 77  1  0  0  0  0
 23 78  1  0  0  0  0
 24 26  1  0  0  0  0
 24 79  1  0  0  0  0
 24 80  1  0  0  0  0
 25 27  1  0  0  0  0
 25 81  1  0  0  0  0
 25 82  1  0  0  0  0
 26 28  1  0  0  0  0
 26 83  1  0  0  0  0
 26 84  1  0  0  0  0
 27 29  1  0  0  0  0
 27 85  1  0  0  0  0
 27 86  1  0  0  0  0
 28 30  1  0  0  0  0
 28 87  1  0  0  0  0
 28 88  1  0  0  0  0
 29 31  1  0  0  0  0
 29 89  1  0  0  0  0
 29 90  1  0  0  0  0
 30 32  1  0  0  0  0
 30 91  1  0  0  0  0
 30 92  1  0  0  0  0
 31 93  1  0  0  0  0
 31 94  1  0  0  0  0
 31 95  1  0  0  0  0
 32 96  1  0  0  0  0
 32 97  1  0  0  0  0
 32 98  1  0  0  0  0
M  END
