  N-DODECYLAMINE.mol	124-22-1
  NIST    08011311463D 1   1.00000     0.00000
Copyright by the U.S. Sec. Commerce on behalf of U.S.A. All rights reserved.
 40 39  0  0  0  0  0  0  0  0999 V2000
  180.0131   -0.2173    0.0343 N    0  0  0  0  0  0  0  0  0  0  0  0
  179.2552    1.0394   -0.0219 C    0  0  0  0  0  0  0  0  0  0  0  0
  180.2012    2.2417   -0.0102 C    0  0  0  0  0  0  0  0  0  0  0  0
  179.4713    3.5902   -0.0138 C    0  0  0  0  0  0  0  0  0  0  0  0
  180.4190    4.7967   -0.0123 C    0  0  0  0  0  0  0  0  0  0  0  0
  179.6919    6.1476   -0.0087 C    0  0  0  0  0  0  0  0  0  0  0  0
  180.6394    7.3542   -0.0086 C    0  0  0  0  0  0  0  0  0  0  0  0
  179.9126    8.7053   -0.0029 C    0  0  0  0  0  0  0  0  0  0  0  0
  180.8600    9.9121   -0.0034 C    0  0  0  0  0  0  0  0  0  0  0  0
  180.1330   11.2631    0.0034 C    0  0  0  0  0  0  0  0  0  0  0  0
  181.0796   12.4701    0.0024 C    0  0  0  0  0  0  0  0  0  0  0  0
  180.3529   13.8211    0.0099 C    0  0  0  0  0  0  0  0  0  0  0  0
  181.3058   15.0208    0.0085 C    0  0  0  0  0  0  0  0  0  0  0  0
  179.3691   -1.0069    0.0550 H    0  0  0  0  0  0  0  0  0  0  0  0
  180.5542   -0.3232   -0.8238 H    0  0  0  0  0  0  0  0  0  0  0  0
  178.6125    1.0774    0.8676 H    0  0  0  0  0  0  0  0  0  0  0  0
  178.5818    1.1180   -0.8966 H    0  0  0  0  0  0  0  0  0  0  0  0
  180.8648    2.1855   -0.8873 H    0  0  0  0  0  0  0  0  0  0  0  0
  180.8505    2.1630    0.8714 H    0  0  0  0  0  0  0  0  0  0  0  0
  178.8108    3.6478    0.8643 H    0  0  0  0  0  0  0  0  0  0  0  0
  178.8121    3.6487   -0.8929 H    0  0  0  0  0  0  0  0  0  0  0  0
  181.0780    4.7415   -0.8916 H    0  0  0  0  0  0  0  0  0  0  0  0
  181.0798    4.7374    0.8650 H    0  0  0  0  0  0  0  0  0  0  0  0
  179.0338    6.2029    0.8713 H    0  0  0  0  0  0  0  0  0  0  0  0
  179.0297    6.2061   -0.8855 H    0  0  0  0  0  0  0  0  0  0  0  0
  181.2969    7.2996   -0.8891 H    0  0  0  0  0  0  0  0  0  0  0  0
  181.3023    7.2951    0.8676 H    0  0  0  0  0  0  0  0  0  0  0  0
  179.2556    8.7600    0.8780 H    0  0  0  0  0  0  0  0  0  0  0  0
  179.2493    8.7643   -0.8788 H    0  0  0  0  0  0  0  0  0  0  0  0
  181.5166    9.8578   -0.8846 H    0  0  0  0  0  0  0  0  0  0  0  0
  181.5237    9.8529    0.8721 H    0  0  0  0  0  0  0  0  0  0  0  0
  179.4767   11.3173    0.8849 H    0  0  0  0  0  0  0  0  0  0  0  0
  179.4689   11.3220   -0.8719 H    0  0  0  0  0  0  0  0  0  0  0  0
  181.7359   12.4172   -0.8793 H    0  0  0  0  0  0  0  0  0  0  0  0
  181.7443   12.4121    0.8775 H    0  0  0  0  0  0  0  0  0  0  0  0
  179.6980   13.8746    0.8914 H    0  0  0  0  0  0  0  0  0  0  0  0
  179.6891   13.8796   -0.8645 H    0  0  0  0  0  0  0  0  0  0  0  0
  180.7569   15.9695    0.0143 H    0  0  0  0  0  0  0  0  0  0  0  0
  181.9501   15.0141   -0.8794 H    0  0  0  0  0  0  0  0  0  0  0  0
  181.9594   15.0088    0.8897 H    0  0  0  0  0  0  0  0  0  0  0  0
  1  2  1  0
  2  3  1  0
  3  4  1  0
  4  5  1  0
  5  6  1  0
  6  7  1  0
  7  8  1  0
  8  9  1  0
  9 10  1  0
 10 11  1  0
 11 12  1  0
 12 13  1  0
  1 14  1  0
  1 15  1  0
  2 16  1  0
  2 17  1  0
  3 18  1  0
  3 19  1  0
  4 20  1  0
  4 21  1  0
  5 22  1  0
  5 23  1  0
  6 24  1  0
  6 25  1  0
  7 26  1  0
  7 27  1  0
  8 28  1  0
  8 29  1  0
  9 30  1  0
  9 31  1  0
 10 32  1  0
 10 33  1  0
 11 34  1  0
 11 35  1  0
 12 36  1  0
 12 37  1  0
 13 38  1  0
 13 39  1  0
 13 40  1  0
M  END
