  N-DODECYLCYCLOPENTANE.mol	5634-30-0
  NIST    07081519243D 1   1.00000  -668.32266
Copyright by the U.S. Sec. Commerce on behalf of U.S.A. All rights reserved.
 51 51  0  0  0  0  0  0  0  0999 V2000
   -0.6842   -0.8167   -0.0978 C    0  0  0  0  0  0  0  0  0  0  0  0
    0.8322   -0.7009    0.1618 C    0  0  0  0  0  0  0  0  0  0  0  0
    1.2169    0.7137   -0.3350 C    0  0  0  0  0  0  0  0  0  0  0  0
   -0.1002    1.5487   -0.3039 C    0  0  0  0  0  0  0  0  0  0  0  0
   -1.1813    0.5984    0.2564 C    0  0  0  0  0  0  0  0  0  0  0  0
   -1.4013   -1.9421    0.6570 C    0  0  0  0  0  0  0  0  0  0  0  0
   -0.9702   -3.3588    0.2514 C    0  0  0  0  0  0  0  0  0  0  0  0
   -1.7430   -4.4630    0.9848 C    0  0  0  0  0  0  0  0  0  0  0  0
   -1.3221   -5.8812    0.5783 C    0  0  0  0  0  0  0  0  0  0  0  0
   -2.0970   -6.9852    1.3097 C    0  0  0  0  0  0  0  0  0  0  0  0
   -1.6790   -8.4034    0.9000 C    0  0  0  0  0  0  0  0  0  0  0  0
   -2.4544   -9.5075    1.6305 C    0  0  0  0  0  0  0  0  0  0  0  0
   -2.0372  -10.9255    1.2193 C    0  0  0  0  0  0  0  0  0  0  0  0
   -2.8122  -12.0302    1.9492 C    0  0  0  0  0  0  0  0  0  0  0  0
   -2.3947  -13.4479    1.5378 C    0  0  0  0  0  0  0  0  0  0  0  0
   -3.1692  -14.5534    2.2670 C    0  0  0  0  0  0  0  0  0  0  0  0
   -2.7448  -15.9654    1.8501 C    0  0  0  0  0  0  0  0  0  0  0  0
   -0.8365   -0.9707   -1.1788 H    0  0  0  0  0  0  0  0  0  0  0  0
    1.4166   -1.4898   -0.3239 H    0  0  0  0  0  0  0  0  0  0  0  0
    1.0142   -0.7865    1.2430 H    0  0  0  0  0  0  0  0  0  0  0  0
    1.6140    0.6671   -1.3555 H    0  0  0  0  0  0  0  0  0  0  0  0
    2.0033    1.1582    0.2844 H    0  0  0  0  0  0  0  0  0  0  0  0
   -0.3678    1.8716   -1.3167 H    0  0  0  0  0  0  0  0  0  0  0  0
   -0.0028    2.4583    0.2982 H    0  0  0  0  0  0  0  0  0  0  0  0
   -1.2399    0.6918    1.3504 H    0  0  0  0  0  0  0  0  0  0  0  0
   -2.1823    0.8098   -0.1374 H    0  0  0  0  0  0  0  0  0  0  0  0
   -2.4857   -1.8423    0.4997 H    0  0  0  0  0  0  0  0  0  0  0  0
   -1.2379   -1.8069    1.7374 H    0  0  0  0  0  0  0  0  0  0  0  0
    0.1052   -3.4857    0.4391 H    0  0  0  0  0  0  0  0  0  0  0  0
   -1.1061   -3.4813   -0.8337 H    0  0  0  0  0  0  0  0  0  0  0  0
   -2.8200   -4.3369    0.7983 H    0  0  0  0  0  0  0  0  0  0  0  0
   -1.6079   -4.3414    2.0700 H    0  0  0  0  0  0  0  0  0  0  0  0
   -0.2454   -6.0081    0.7658 H    0  0  0  0  0  0  0  0  0  0  0  0
   -1.4564   -6.0020   -0.5070 H    0  0  0  0  0  0  0  0  0  0  0  0
   -3.1737   -6.8567    1.1240 H    0  0  0  0  0  0  0  0  0  0  0  0
   -1.9610   -6.8661    2.3950 H    0  0  0  0  0  0  0  0  0  0  0  0
   -0.6023   -8.5322    1.0858 H    0  0  0  0  0  0  0  0  0  0  0  0
   -1.8149   -8.5221   -0.1854 H    0  0  0  0  0  0  0  0  0  0  0  0
   -3.5312   -9.3783    1.4454 H    0  0  0  0  0  0  0  0  0  0  0  0
   -2.3179   -9.3896    2.7159 H    0  0  0  0  0  0  0  0  0  0  0  0
   -0.9604  -11.0547    1.4044 H    0  0  0  0  0  0  0  0  0  0  0  0
   -2.1737  -11.0432    0.1339 H    0  0  0  0  0  0  0  0  0  0  0  0
   -3.8891  -11.9013    1.7640 H    0  0  0  0  0  0  0  0  0  0  0  0
   -2.6759  -11.9127    3.0347 H    0  0  0  0  0  0  0  0  0  0  0  0
   -1.3179  -13.5779    1.7232 H    0  0  0  0  0  0  0  0  0  0  0  0
   -2.5309  -13.5664    0.4523 H    0  0  0  0  0  0  0  0  0  0  0  0
   -4.2450  -14.4247    2.0808 H    0  0  0  0  0  0  0  0  0  0  0  0
   -3.0331  -14.4357    3.3515 H    0  0  0  0  0  0  0  0  0  0  0  0
   -2.9023  -16.1256    0.7763 H    0  0  0  0  0  0  0  0  0  0  0  0
   -3.3155  -16.7311    2.3880 H    0  0  0  0  0  0  0  0  0  0  0  0
   -1.6810  -16.1365    2.0563 H    0  0  0  0  0  0  0  0  0  0  0  0
  1  2  1  0  0  0  0
  1  5  1  0  0  0  0
  1  6  1  0  0  0  0
  1 18  1  0  0  0  0
  2  3  1  0  0  0  0
  2 19  1  0  0  0  0
  2 20  1  0  0  0  0
  3  4  1  0  0  0  0
  3 21  1  0  0  0  0
  3 22  1  0  0  0  0
  4  5  1  0  0  0  0
  4 23  1  0  0  0  0
  4 24  1  0  0  0  0
  5 25  1  0  0  0  0
  5 26  1  0  0  0  0
  6  7  1  0  0  0  0
  6 27  1  0  0  0  0
  6 28  1  0  0  0  0
  7  8  1  0  0  0  0
  7 29  1  0  0  0  0
  7 30  1  0  0  0  0
  8  9  1  0  0  0  0
  8 31  1  0  0  0  0
  8 32  1  0  0  0  0
  9 10  1  0  0  0  0
  9 33  1  0  0  0  0
  9 34  1  0  0  0  0
 10 11  1  0  0  0  0
 10 35  1  0  0  0  0
 10 36  1  0  0  0  0
 11 12  1  0  0  0  0
 11 37  1  0  0  0  0
 11 38  1  0  0  0  0
 12 13  1  0  0  0  0
 12 39  1  0  0  0  0
 12 40  1  0  0  0  0
 13 14  1  0  0  0  0
 13 41  1  0  0  0  0
 13 42  1  0  0  0  0
 14 15  1  0  0  0  0
 14 43  1  0  0  0  0
 14 44  1  0  0  0  0
 15 16  1  0  0  0  0
 15 45  1  0  0  0  0
 15 46  1  0  0  0  0
 16 17  1  0  0  0  0
 16 47  1  0  0  0  0
 16 48  1  0  0  0  0
 17 49  1  0  0  0  0
 17 50  1  0  0  0  0
 17 51  1  0  0  0  0
M  END
