  N-DODECYLCYCLOHEXANE.mol	1795-17-1
  NIST    07021500473D 1   1.00000  -707.62865
Copyright by the U.S. Sec. Commerce on behalf of U.S.A. All rights reserved.
 54 54  0  0  0  0  0  0  0  0999 V2000
    1.4749    2.5335    1.6644 C    0  0  0  0  0  0  0  0  0  0  0  0
    1.9645    3.4233    2.8151 C    0  0  0  0  0  0  0  0  0  0  0  0
    0.5181    3.3099    0.7291 C    0  0  0  0  0  0  0  0  0  0  0  0
    2.8189    4.6200    2.3042 C    0  0  0  0  0  0  0  0  0  0  0  0
    2.3714    5.0461    0.8814 C    0  0  0  0  0  0  0  0  0  0  0  0
    4.3253    4.3018    2.3662 C    0  0  0  0  0  0  0  0  0  0  0  0
    0.8691    4.8155    0.6661 C    0  0  0  0  0  0  0  0  0  0  0  0
    5.2505    5.4614    1.9720 C    0  0  0  0  0  0  0  0  0  0  0  0
    6.7402    5.1187    2.1118 C    0  0  0  0  0  0  0  0  0  0  0  0
    7.6684    6.2844    1.7417 C    0  0  0  0  0  0  0  0  0  0  0  0
    9.1698    5.9529    1.7796 C    0  0  0  0  0  0  0  0  0  0  0  0
    9.7240    5.6189    3.1723 C    0  0  0  0  0  0  0  0  0  0  0  0
   11.2411    5.3825    3.1687 C    0  0  0  0  0  0  0  0  0  0  0  0
   11.8569    5.1255    4.5556 C    0  0  0  0  0  0  0  0  0  0  0  0
   11.3880    3.8527    5.2853 C    0  0  0  0  0  0  0  0  0  0  0  0
   11.7414    2.5423    4.5662 C    0  0  0  0  0  0  0  0  0  0  0  0
   11.3131    1.2681    5.3154 C    0  0  0  0  0  0  0  0  0  0  0  0
   12.0506    1.0263    6.6379 C    0  0  0  0  0  0  0  0  0  0  0  0
    2.3432    2.1758    1.0948 H    0  0  0  0  0  0  0  0  0  0  0  0
    0.9793    1.6364    2.0547 H    0  0  0  0  0  0  0  0  0  0  0  0
    1.0906    3.7999    3.3641 H    0  0  0  0  0  0  0  0  0  0  0  0
    2.5445    2.8333    3.5364 H    0  0  0  0  0  0  0  0  0  0  0  0
    0.5595    2.8736   -0.2771 H    0  0  0  0  0  0  0  0  0  0  0  0
   -0.5177    3.1912    1.0720 H    0  0  0  0  0  0  0  0  0  0  0  0
    2.6363    5.4695    2.9795 H    0  0  0  0  0  0  0  0  0  0  0  0
    2.6257    6.0980    0.7061 H    0  0  0  0  0  0  0  0  0  0  0  0
    2.9316    4.4682    0.1307 H    0  0  0  0  0  0  0  0  0  0  0  0
    4.5372    3.4343    1.7217 H    0  0  0  0  0  0  0  0  0  0  0  0
    4.5747    3.9862    3.3900 H    0  0  0  0  0  0  0  0  0  0  0  0
    0.3143    5.3615    1.4416 H    0  0  0  0  0  0  0  0  0  0  0  0
    0.5473    5.2401   -0.2926 H    0  0  0  0  0  0  0  0  0  0  0  0
    5.0496    5.7678    0.9362 H    0  0  0  0  0  0  0  0  0  0  0  0
    5.0197    6.3365    2.5987 H    0  0  0  0  0  0  0  0  0  0  0  0
    6.9741    4.2534    1.4729 H    0  0  0  0  0  0  0  0  0  0  0  0
    6.9372    4.7965    3.1436 H    0  0  0  0  0  0  0  0  0  0  0  0
    7.4679    7.1334    2.4124 H    0  0  0  0  0  0  0  0  0  0  0  0
    7.4115    6.6314    0.7305 H    0  0  0  0  0  0  0  0  0  0  0  0
    9.7286    6.8091    1.3751 H    0  0  0  0  0  0  0  0  0  0  0  0
    9.3719    5.1122    1.0988 H    0  0  0  0  0  0  0  0  0  0  0  0
    9.2128    4.7328    3.5701 H    0  0  0  0  0  0  0  0  0  0  0  0
    9.4882    6.4433    3.8629 H    0  0  0  0  0  0  0  0  0  0  0  0
   11.7329    6.2645    2.7336 H    0  0  0  0  0  0  0  0  0  0  0  0
   11.4764    4.5488    2.4924 H    0  0  0  0  0  0  0  0  0  0  0  0
   11.6478    5.9936    5.1973 H    0  0  0  0  0  0  0  0  0  0  0  0
   12.9507    5.0844    4.4504 H    0  0  0  0  0  0  0  0  0  0  0  0
   10.3015    3.8920    5.4486 H    0  0  0  0  0  0  0  0  0  0  0  0
   11.8406    3.8529    6.2855 H    0  0  0  0  0  0  0  0  0  0  0  0
   12.8274    2.5088    4.3886 H    0  0  0  0  0  0  0  0  0  0  0  0
   11.2719    2.5336    3.5737 H    0  0  0  0  0  0  0  0  0  0  0  0
   11.4757    0.4040    4.6569 H    0  0  0  0  0  0  0  0  0  0  0  0
   10.2301    1.3062    5.5024 H    0  0  0  0  0  0  0  0  0  0  0  0
   13.1358    0.9815    6.4809 H    0  0  0  0  0  0  0  0  0  0  0  0
   11.8544    1.8187    7.3688 H    0  0  0  0  0  0  0  0  0  0  0  0
   11.7415    0.0779    7.0923 H    0  0  0  0  0  0  0  0  0  0  0  0
  1  3  1  0  0  0  0
  1 19  1  0  0  0  0
  1 20  1  0  0  0  0
  2  1  1  0  0  0  0
  2 21  1  0  0  0  0
  2 22  1  0  0  0  0
  3  7  1  0  0  0  0
  3 23  1  0  0  0  0
  3 24  1  0  0  0  0
  4  2  1  0  0  0  0
  4  6  1  0  0  0  0
  4 25  1  0  0  0  0
  5  4  1  0  0  0  0
  5 26  1  0  0  0  0
  5 27  1  0  0  0  0
  6  8  1  0  0  0  0
  6 28  1  0  0  0  0
  6 29  1  0  0  0  0
  7  5  1  0  0  0  0
  7 30  1  0  0  0  0
  7 31  1  0  0  0  0
  8  9  1  0  0  0  0
  8 32  1  0  0  0  0
  8 33  1  0  0  0  0
  9 10  1  0  0  0  0
  9 34  1  0  0  0  0
  9 35  1  0  0  0  0
 10 11  1  0  0  0  0
 10 36  1  0  0  0  0
 10 37  1  0  0  0  0
 11 12  1  0  0  0  0
 11 38  1  0  0  0  0
 11 39  1  0  0  0  0
 12 13  1  0  0  0  0
 12 40  1  0  0  0  0
 12 41  1  0  0  0  0
 13 14  1  0  0  0  0
 13 42  1  0  0  0  0
 13 43  1  0  0  0  0
 14 15  1  0  0  0  0
 14 44  1  0  0  0  0
 14 45  1  0  0  0  0
 15 16  1  0  0  0  0
 15 46  1  0  0  0  0
 15 47  1  0  0  0  0
 16 17  1  0  0  0  0
 16 48  1  0  0  0  0
 16 49  1  0  0  0  0
 17 18  1  0  0  0  0
 17 50  1  0  0  0  0
 17 51  1  0  0  0  0
 18 52  1  0  0  0  0
 18 53  1  0  0  0  0
 18 54  1  0  0  0  0
M  END
