  N-HEPTYL ACETATE.mol	112-06-1
  NIST    07011504113D 1   1.00000  -504.27590
Copyright by the U.S. Sec. Commerce on behalf of U.S.A. All rights reserved.
 29 28  0  0  0  0  0  0  0  0999 V2000
    6.9358    1.3841    2.8561 C    0  0  0  0  0  0  0  0  0  0  0  0
    5.8087    2.2651    2.3003 C    0  0  0  0  0  0  0  0  0  0  0  0
    8.2595    2.1288    2.9356 C    0  0  0  0  0  0  0  0  0  0  0  0
    4.4622    1.5354    2.2073 C    0  0  0  0  0  0  0  0  0  0  0  0
    9.2451    1.2226    3.4808 O    0  0  0  0  0  0  0  0  0  0  0  0
    3.3297    2.4142    1.6615 C    0  0  0  0  0  0  0  0  0  0  0  0
   10.4940    1.7230    3.6207 C    0  0  0  0  0  0  0  0  0  0  0  0
    1.9809    1.6891    1.5687 C    0  0  0  0  0  0  0  0  0  0  0  0
   11.4261    0.6859    4.2047 C    0  0  0  0  0  0  0  0  0  0  0  0
   10.8025    2.8543    3.3153 O    0  0  0  0  0  0  0  0  0  0  0  0
    0.8550    2.5756    1.0266 C    0  0  0  0  0  0  0  0  0  0  0  0
    7.0630    0.4947    2.2251 H    0  0  0  0  0  0  0  0  0  0  0  0
    6.6693    1.0226    3.8580 H    0  0  0  0  0  0  0  0  0  0  0  0
    6.0901    2.6350    1.3034 H    0  0  0  0  0  0  0  0  0  0  0  0
    5.6949    3.1563    2.9346 H    0  0  0  0  0  0  0  0  0  0  0  0
    8.1932    3.0111    3.5819 H    0  0  0  0  0  0  0  0  0  0  0  0
    8.5967    2.4691    1.9503 H    0  0  0  0  0  0  0  0  0  0  0  0
    4.1838    1.1602    3.2031 H    0  0  0  0  0  0  0  0  0  0  0  0
    4.5742    0.6471    1.5684 H    0  0  0  0  0  0  0  0  0  0  0  0
    3.6082    2.7899    0.6655 H    0  0  0  0  0  0  0  0  0  0  0  0
    3.2195    3.3031    2.3005 H    0  0  0  0  0  0  0  0  0  0  0  0
    1.7035    1.3125    2.5636 H    0  0  0  0  0  0  0  0  0  0  0  0
    2.0897    0.8024    0.9280 H    0  0  0  0  0  0  0  0  0  0  0  0
   11.4449   -0.2063    3.5704 H    0  0  0  0  0  0  0  0  0  0  0  0
   12.4294    1.1051    4.2870 H    0  0  0  0  0  0  0  0  0  0  0  0
   11.0712    0.3756    5.1932 H    0  0  0  0  0  0  0  0  0  0  0  0
   -0.0946    2.0308    0.9756 H    0  0  0  0  0  0  0  0  0  0  0  0
    0.7010    3.4547    1.6645 H    0  0  0  0  0  0  0  0  0  0  0  0
    1.0861    2.9372    0.0169 H    0  0  0  0  0  0  0  0  0  0  0  0
  1  2  1  0  0  0  0
  1  3  1  0  0  0  0
  1 12  1  0  0  0  0
  1 13  1  0  0  0  0
  2  4  1  0  0  0  0
  2 14  1  0  0  0  0
  2 15  1  0  0  0  0
  3  5  1  0  0  0  0
  3 16  1  0  0  0  0
  3 17  1  0  0  0  0
  4  6  1  0  0  0  0
  4 18  1  0  0  0  0
  4 19  1  0  0  0  0
  5  7  1  0  0  0  0
  6  8  1  0  0  0  0
  6 20  1  0  0  0  0
  6 21  1  0  0  0  0
  7  9  1  0  0  0  0
  7 10  2  0  0  0  0
  8 11  1  0  0  0  0
  8 22  1  0  0  0  0
  8 23  1  0  0  0  0
  9 24  1  0  0  0  0
  9 25  1  0  0  0  0
  9 26  1  0  0  0  0
 11 27  1  0  0  0  0
 11 28  1  0  0  0  0
 11 29  1  0  0  0  0
M  END
