  N-HEPTADECANE.mol	629-78-7
  NIST    07021511013D 1   1.00000  -669.52569
Copyright by the U.S. Sec. Commerce on behalf of U.S.A. All rights reserved.
 53 52  0  0  0  0  0  0  0  0999 V2000
    8.9114    1.7040    2.0823 C    0  0  0  0  0  0  0  0  0  0  0  0
    7.6212    0.9059    1.8491 C    0  0  0  0  0  0  0  0  0  0  0  0
    6.7164    1.4613    0.7343 C    0  0  0  0  0  0  0  0  0  0  0  0
    9.8359    1.0724    3.1318 C    0  0  0  0  0  0  0  0  0  0  0  0
    6.1389    2.8686    0.9698 C    0  0  0  0  0  0  0  0  0  0  0  0
   11.1238    1.8705    3.3719 C    0  0  0  0  0  0  0  0  0  0  0  0
    5.1856    2.9783    2.1688 C    0  0  0  0  0  0  0  0  0  0  0  0
   12.0536    1.2400    4.4170 C    0  0  0  0  0  0  0  0  0  0  0  0
    4.5737    4.3793    2.3162 C    0  0  0  0  0  0  0  0  0  0  0  0
   13.3500    2.0371    4.6311 C    0  0  0  0  0  0  0  0  0  0  0  0
    3.6625    4.5666    3.5421 C    0  0  0  0  0  0  0  0  0  0  0  0
   14.3297    1.4378    5.6654 C    0  0  0  0  0  0  0  0  0  0  0  0
    2.3651    3.7457    3.5037 C    0  0  0  0  0  0  0  0  0  0  0  0
   14.1884    1.9574    7.1076 C    0  0  0  0  0  0  0  0  0  0  0  0
    1.4486    3.9431    4.7240 C    0  0  0  0  0  0  0  0  0  0  0  0
   12.8581    1.6483    7.8041 C    0  0  0  0  0  0  0  0  0  0  0  0
    0.8518    5.3497    4.8549 C    0  0  0  0  0  0  0  0  0  0  0  0
    8.6671    2.7292    2.3939 H    0  0  0  0  0  0  0  0  0  0  0  0
    9.4556    1.7983    1.1302 H    0  0  0  0  0  0  0  0  0  0  0  0
    7.0587    0.8416    2.7912 H    0  0  0  0  0  0  0  0  0  0  0  0
    7.8887   -0.1289    1.5915 H    0  0  0  0  0  0  0  0  0  0  0  0
    7.2854    1.4686   -0.2066 H    0  0  0  0  0  0  0  0  0  0  0  0
    5.8826    0.7617    0.5782 H    0  0  0  0  0  0  0  0  0  0  0  0
   10.0948    0.0496    2.8197 H    0  0  0  0  0  0  0  0  0  0  0  0
    9.2895    0.9693    4.0814 H    0  0  0  0  0  0  0  0  0  0  0  0
    6.9553    3.5947    1.0879 H    0  0  0  0  0  0  0  0  0  0  0  0
    5.5983    3.1747    0.0626 H    0  0  0  0  0  0  0  0  0  0  0  0
   11.6674    1.9773    2.4210 H    0  0  0  0  0  0  0  0  0  0  0  0
   10.8635    2.8922    3.6868 H    0  0  0  0  0  0  0  0  0  0  0  0
    5.7177    2.7241    3.0967 H    0  0  0  0  0  0  0  0  0  0  0  0
    4.3899    2.2284    2.0584 H    0  0  0  0  0  0  0  0  0  0  0  0
   11.5108    1.1328    5.3651 H    0  0  0  0  0  0  0  0  0  0  0  0
   12.3131    0.2185    4.1012 H    0  0  0  0  0  0  0  0  0  0  0  0
    4.0085    4.6254    1.4047 H    0  0  0  0  0  0  0  0  0  0  0  0
    5.3905    5.1134    2.3710 H    0  0  0  0  0  0  0  0  0  0  0  0
   13.8601    2.1144    3.6608 H    0  0  0  0  0  0  0  0  0  0  0  0
   13.1027    3.0703    4.9181 H    0  0  0  0  0  0  0  0  0  0  0  0
    3.4155    5.6329    3.6269 H    0  0  0  0  0  0  0  0  0  0  0  0
    4.2243    4.3115    4.4537 H    0  0  0  0  0  0  0  0  0  0  0  0
   14.2369    0.3416    5.6620 H    0  0  0  0  0  0  0  0  0  0  0  0
   15.3572    1.6503    5.3417 H    0  0  0  0  0  0  0  0  0  0  0  0
    1.8066    3.9969    2.5889 H    0  0  0  0  0  0  0  0  0  0  0  0
    2.6113    2.6787    3.4260 H    0  0  0  0  0  0  0  0  0  0  0  0
   15.0062    1.5317    7.7055 H    0  0  0  0  0  0  0  0  0  0  0  0
   14.3501    3.0451    7.1083 H    0  0  0  0  0  0  0  0  0  0  0  0
    2.0076    3.6969    5.6384 H    0  0  0  0  0  0  0  0  0  0  0  0
    0.6283    3.2149    4.6659 H    0  0  0  0  0  0  0  0  0  0  0  0
   12.6468    0.5717    7.8008 H    0  0  0  0  0  0  0  0  0  0  0  0
   12.8799    1.9792    8.8491 H    0  0  0  0  0  0  0  0  0  0  0  0
   12.0157    2.1542    7.3197 H    0  0  0  0  0  0  0  0  0  0  0  0
    0.1648    5.4073    5.7071 H    0  0  0  0  0  0  0  0  0  0  0  0
    0.2877    5.6237    3.9543 H    0  0  0  0  0  0  0  0  0  0  0  0
    1.6245    6.1116    5.0059 H    0  0  0  0  0  0  0  0  0  0  0  0
  1  2  1  0  0  0  0
  1  4  1  0  0  0  0
  1 18  1  0  0  0  0
  1 19  1  0  0  0  0
  2  3  1  0  0  0  0
  2 20  1  0  0  0  0
  2 21  1  0  0  0  0
  3  5  1  0  0  0  0
  3 22  1  0  0  0  0
  3 23  1  0  0  0  0
  4  6  1  0  0  0  0
  4 24  1  0  0  0  0
  4 25  1  0  0  0  0
  5  7  1  0  0  0  0
  5 26  1  0  0  0  0
  5 27  1  0  0  0  0
  6  8  1  0  0  0  0
  6 28  1  0  0  0  0
  6 29  1  0  0  0  0
  7  9  1  0  0  0  0
  7 30  1  0  0  0  0
  7 31  1  0  0  0  0
  8 10  1  0  0  0  0
  8 32  1  0  0  0  0
  8 33  1  0  0  0  0
  9 11  1  0  0  0  0
  9 34  1  0  0  0  0
  9 35  1  0  0  0  0
 10 12  1  0  0  0  0
 10 36  1  0  0  0  0
 10 37  1  0  0  0  0
 11 13  1  0  0  0  0
 11 38  1  0  0  0  0
 11 39  1  0  0  0  0
 12 14  1  0  0  0  0
 12 40  1  0  0  0  0
 12 41  1  0  0  0  0
 13 15  1  0  0  0  0
 13 42  1  0  0  0  0
 13 43  1  0  0  0  0
 14 16  1  0  0  0  0
 14 44  1  0  0  0  0
 14 45  1  0  0  0  0
 15 17  1  0  0  0  0
 15 46  1  0  0  0  0
 15 47  1  0  0  0  0
 16 48  1  0  0  0  0
 16 49  1  0  0  0  0
 16 50  1  0  0  0  0
 17 51  1  0  0  0  0
 17 52  1  0  0  0  0
 17 53  1  0  0  0  0
M  END
