  N-MARGARIC ACID.mol	506-12-7
  NIST    06301311483D 1   1.00000  -818.78878
Copyright by the U.S. Sec. Commerce on behalf of U.S.A. All rights reserved.
 53 52  0  0  0  0  0  0  0  0999 V2000
    0.6265    0.0229   -0.0218 C    0  0  0  0  0  0  0  0  0  0  0  0
    1.9729    0.7574    0.0173 C    0  0  0  0  0  0  0  0  0  0  0  0
   -0.5792    0.9675    0.0151 C    0  0  0  0  0  0  0  0  0  0  0  0
    3.1860   -0.1808   -0.0188 C    0  0  0  0  0  0  0  0  0  0  0  0
    4.5322    0.5541    0.0180 C    0  0  0  0  0  0  0  0  0  0  0  0
    5.7451   -0.3847   -0.0181 C    0  0  0  0  0  0  0  0  0  0  0  0
    7.0914    0.3501    0.0177 C    0  0  0  0  0  0  0  0  0  0  0  0
    8.3041   -0.5890   -0.0185 C    0  0  0  0  0  0  0  0  0  0  0  0
    9.6506    0.1455    0.0173 C    0  0  0  0  0  0  0  0  0  0  0  0
   10.8630   -0.7939   -0.0190 C    0  0  0  0  0  0  0  0  0  0  0  0
   12.2096   -0.0597    0.0181 C    0  0  0  0  0  0  0  0  0  0  0  0
   13.4216   -0.9996   -0.0186 C    0  0  0  0  0  0  0  0  0  0  0  0
   14.7678   -0.2651    0.0209 C    0  0  0  0  0  0  0  0  0  0  0  0
   15.9792   -1.2057   -0.0164 C    0  0  0  0  0  0  0  0  0  0  0  0
   17.3210   -0.4647    0.0266 C    0  0  0  0  0  0  0  0  0  0  0  0
   18.5202   -1.4137   -0.0121 C    0  0  0  0  0  0  0  0  0  0  0  0
   19.8517   -0.6965    0.0347 C    0  0  0  0  0  0  0  0  0  0  0  0
   20.8896   -1.5727   -0.0114 O    0  0  0  0  0  0  0  0  0  0  0  0
   20.0188    0.5010    0.1052 O    0  0  0  0  0  0  0  0  0  0  0  0
    0.5787   -0.5966   -0.9288 H    0  0  0  0  0  0  0  0  0  0  0  0
    0.5707   -0.6756    0.8254 H    0  0  0  0  0  0  0  0  0  0  0  0
    2.0201    1.3785    0.9244 H    0  0  0  0  0  0  0  0  0  0  0  0
    2.0282    1.4564   -0.8307 H    0  0  0  0  0  0  0  0  0  0  0  0
   -1.5244    0.4134   -0.0157 H    0  0  0  0  0  0  0  0  0  0  0  0
   -0.5789    1.5751    0.9285 H    0  0  0  0  0  0  0  0  0  0  0  0
   -0.5690    1.6563   -0.8387 H    0  0  0  0  0  0  0  0  0  0  0  0
    3.1368   -0.8026   -0.9253 H    0  0  0  0  0  0  0  0  0  0  0  0
    3.1303   -0.8788    0.8299 H    0  0  0  0  0  0  0  0  0  0  0  0
    4.5815    1.1761    0.9242 H    0  0  0  0  0  0  0  0  0  0  0  0
    4.5879    1.2519   -0.8309 H    0  0  0  0  0  0  0  0  0  0  0  0
    5.6954   -1.0071   -0.9240 H    0  0  0  0  0  0  0  0  0  0  0  0
    5.6897   -1.0820    0.8312 H    0  0  0  0  0  0  0  0  0  0  0  0
    7.1413    0.9725    0.9236 H    0  0  0  0  0  0  0  0  0  0  0  0
    7.1469    1.0474   -0.8316 H    0  0  0  0  0  0  0  0  0  0  0  0
    8.2543   -1.2113   -0.9245 H    0  0  0  0  0  0  0  0  0  0  0  0
    8.2486   -1.2864    0.8307 H    0  0  0  0  0  0  0  0  0  0  0  0
    9.7006    0.7677    0.9234 H    0  0  0  0  0  0  0  0  0  0  0  0
    9.7063    0.8430   -0.8317 H    0  0  0  0  0  0  0  0  0  0  0  0
   10.8134   -1.4156   -0.9255 H    0  0  0  0  0  0  0  0  0  0  0  0
   10.8069   -1.4919    0.8297 H    0  0  0  0  0  0  0  0  0  0  0  0
   12.2594    0.5615    0.9248 H    0  0  0  0  0  0  0  0  0  0  0  0
   12.2659    0.6385   -0.8303 H    0  0  0  0  0  0  0  0  0  0  0  0
   13.3726   -1.6198   -0.9261 H    0  0  0  0  0  0  0  0  0  0  0  0
   13.3645   -1.6987    0.8291 H    0  0  0  0  0  0  0  0  0  0  0  0
   14.8180    0.3542    0.9286 H    0  0  0  0  0  0  0  0  0  0  0  0
   14.8259    0.4343   -0.8261 H    0  0  0  0  0  0  0  0  0  0  0  0
   15.9306   -1.8240   -0.9253 H    0  0  0  0  0  0  0  0  0  0  0  0
   15.9204   -1.9068    0.8296 H    0  0  0  0  0  0  0  0  0  0  0  0
   17.3798    0.1513    0.9326 H    0  0  0  0  0  0  0  0  0  0  0  0
   17.3894    0.2355   -0.8153 H    0  0  0  0  0  0  0  0  0  0  0  0
   18.5079   -2.0358   -0.9175 H    0  0  0  0  0  0  0  0  0  0  0  0
   18.4944   -2.1226    0.8268 H    0  0  0  0  0  0  0  0  0  0  0  0
   21.6993   -1.0294    0.0244 H    0  0  0  0  0  0  0  0  0  0  0  0
  1  2  1  0
  1  3  1  0
  2  4  1  0
  4  5  1  0
  5  6  1  0
  6  7  1  0
  7  8  1  0
  8  9  1  0
  9 10  1  0
 10 11  1  0
 11 12  1  0
 12 13  1  0
 13 14  1  0
 14 15  1  0
 15 16  1  0
 16 17  1  0
 17 18  1  0
 17 19  2  0
  1 20  1  0
  1 21  1  0
  2 22  1  0
  2 23  1  0
  3 24  1  0
  3 25  1  0
  3 26  1  0
  4 27  1  0
  4 28  1  0
  5 29  1  0
  5 30  1  0
  6 31  1  0
  6 32  1  0
  7 33  1  0
  7 34  1  0
  8 35  1  0
  8 36  1  0
  9 37  1  0
  9 38  1  0
 10 39  1  0
 10 40  1  0
 11 41  1  0
 11 42  1  0
 12 43  1  0
 12 44  1  0
 13 45  1  0
 13 46  1  0
 14 47  1  0
 14 48  1  0
 15 49  1  0
 15 50  1  0
 16 51  1  0
 16 52  1  0
 18 53  1  0
M  END
