
 OpenBabel10291916193D

 29 28  0  0  0  0  0  0  0  0999 V2000
    0.6322    0.7327    0.8167 C   0  0  0  0  0  0  0  0  0  0  0  0
    1.6577    1.8612    0.8765 C   0  0  0  0  0  0  0  0  0  0  0  0
    3.0756    1.3110    1.0686 C   0  0  0  0  0  0  0  0  0  0  0  0
    4.1028    2.4478    1.1284 C   0  0  0  0  0  0  0  0  0  0  0  0
    5.5213    1.8983    1.3207 C   0  0  0  0  0  0  0  0  0  0  0  0
    6.5485    3.0352    1.3808 C   0  0  0  0  0  0  0  0  0  0  0  0
   11.0899    3.4353    2.9246 O   0  0  0  0  0  0  0  0  0  0  0  0
   10.3821    3.0873    1.8291 C   0  0  0  0  0  0  0  0  0  0  0  0
    8.9930    3.6234    1.6350 C   0  0  0  0  0  0  0  0  0  0  0  0
   10.8750    2.3445    0.9927 O   0  0  0  0  0  0  0  0  0  0  0  0
    7.9671    2.4859    1.5732 C   0  0  0  0  0  0  0  0  0  0  0  0
   -0.3833    1.1596    0.6773 H   0  0  0  0  0  0  0  0  0  0  0  0
    0.8531    0.0550   -0.0354 H   0  0  0  0  0  0  0  0  0  0  0  0
    0.6458    0.1482    1.7612 H   0  0  0  0  0  0  0  0  0  0  0  0
    1.6072    2.4421   -0.0703 H   0  0  0  0  0  0  0  0  0  0  0  0
    1.4003    2.5350    1.7227 H   0  0  0  0  0  0  0  0  0  0  0  0
    3.1177    0.7281    2.0153 H   0  0  0  0  0  0  0  0  0  0  0  0
    3.3249    0.6352    0.2208 H   0  0  0  0  0  0  0  0  0  0  0  0
    4.0604    3.0306    0.1817 H   0  0  0  0  0  0  0  0  0  0  0  0
    3.8531    3.1235    1.9761 H   0  0  0  0  0  0  0  0  0  0  0  0
    5.5637    1.3153    2.2673 H   0  0  0  0  0  0  0  0  0  0  0  0
    5.7711    1.2226    0.4729 H   0  0  0  0  0  0  0  0  0  0  0  0
    6.5063    3.6182    0.4342 H   0  0  0  0  0  0  0  0  0  0  0  0
    6.2984    3.7107    2.2286 H   0  0  0  0  0  0  0  0  0  0  0  0
   11.9877    3.1031    3.0665 H   0  0  0  0  0  0  0  0  0  0  0  0
    8.9638    4.2120    0.6924 H   0  0  0  0  0  0  0  0  0  0  0  0
    8.7408    4.2990    2.4815 H   0  0  0  0  0  0  0  0  0  0  0  0
    8.0106    1.9031    2.5200 H   0  0  0  0  0  0  0  0  0  0  0  0
    8.2151    1.8099    0.7249 H   0  0  0  0  0  0  0  0  0  0  0  0
  1  2  1  0  0  0  0
  1 12  1  0  0  0  0
  1 13  1  0  0  0  0
  1 14  1  0  0  0  0
  2  3  1  0  0  0  0
  2 15  1  0  0  0  0
  2 16  1  0  0  0  0
  3  4  1  0  0  0  0
  3 17  1  0  0  0  0
  3 18  1  0  0  0  0
  4  5  1  0  0  0  0
  4 19  1  0  0  0  0
  4 20  1  0  0  0  0
  5  6  1  0  0  0  0
  5 21  1  0  0  0  0
  5 22  1  0  0  0  0
  6 11  1  0  0  0  0
  6 23  1  0  0  0  0
  6 24  1  0  0  0  0
  7  8  1  0  0  0  0
  7 25  1  0  0  0  0
  8  9  1  0  0  0  0
  8 10  2  0  0  0  0
  9 11  1  0  0  0  0
  9 26  1  0  0  0  0
  9 27  1  0  0  0  0
 11 28  1  0  0  0  0
 11 29  1  0  0  0  0
M  END
