  N-OCTYL FORMATE.mol	112-32-3
  NIST    07071504123D 1   1.00000  -504.25728
Copyright by the U.S. Sec. Commerce on behalf of U.S.A. All rights reserved.
 29 28  0  0  0  0  0  0  0  0999 V2000
    0.5119   18.9138    0.5775 C    0  0  0  0  0  0  0  0  0  0  0  0
    0.7491   19.6730   -0.5109 O    0  0  0  0  0  0  0  0  0  0  0  0
    0.6832   17.7257    0.5959 O    0  0  0  0  0  0  0  0  0  0  0  0
    0.5658   21.0971   -0.3952 C    0  0  0  0  0  0  0  0  0  0  0  0
    1.9062   21.8098   -0.2535 C    0  0  0  0  0  0  0  0  0  0  0  0
    1.7567   23.3370   -0.2325 C    0  0  0  0  0  0  0  0  0  0  0  0
    3.0965   24.0718   -0.0905 C    0  0  0  0  0  0  0  0  0  0  0  0
    5.4899   28.5935    0.2252 C    0  0  0  0  0  0  0  0  0  0  0  0
    4.1496   27.8641    0.0879 C    0  0  0  0  0  0  0  0  0  0  0  0
    4.2914   26.3367    0.0687 C    0  0  0  0  0  0  0  0  0  0  0  0
    2.9537   25.5989   -0.0718 C    0  0  0  0  0  0  0  0  0  0  0  0
    0.1359   19.4990    1.4404 H    0  0  0  0  0  0  0  0  0  0  0  0
    0.0480   21.4049   -1.3086 H    0  0  0  0  0  0  0  0  0  0  0  0
   -0.0921   21.3189    0.4567 H    0  0  0  0  0  0  0  0  0  0  0  0
    2.3968   21.4673    0.6680 H    0  0  0  0  0  0  0  0  0  0  0  0
    2.5536   21.5038   -1.0849 H    0  0  0  0  0  0  0  0  0  0  0  0
    1.2582   23.6679   -1.1554 H    0  0  0  0  0  0  0  0  0  0  0  0
    1.0933   23.6306    0.5945 H    0  0  0  0  0  0  0  0  0  0  0  0
    3.5953   23.7408    0.8321 H    0  0  0  0  0  0  0  0  0  0  0  0
    3.7597   23.7777   -0.9169 H    0  0  0  0  0  0  0  0  0  0  0  0
    5.3548   29.6810    0.2359 H    0  0  0  0  0  0  0  0  0  0  0  0
    6.0011   28.3123    1.1542 H    0  0  0  0  0  0  0  0  0  0  0  0
    6.1611   28.3495   -0.6075 H    0  0  0  0  0  0  0  0  0  0  0  0
    3.6468   28.1922   -0.8331 H    0  0  0  0  0  0  0  0  0  0  0  0
    3.4872   28.1556    0.9154 H    0  0  0  0  0  0  0  0  0  0  0  0
    4.7933   26.0076    0.9909 H    0  0  0  0  0  0  0  0  0  0  0  0
    4.9561   26.0452   -0.7582 H    0  0  0  0  0  0  0  0  0  0  0  0
    2.4529   25.9282   -0.9944 H    0  0  0  0  0  0  0  0  0  0  0  0
    2.2892   25.8914    0.7549 H    0  0  0  0  0  0  0  0  0  0  0  0
  1  2  1  0  0  0  0
  1  3  2  0  0  0  0
  1 12  1  0  0  0  0
  2  4  1  0  0  0  0
  4  5  1  0  0  0  0
  4 13  1  0  0  0  0
  4 14  1  0  0  0  0
  5  6  1  0  0  0  0
  5 15  1  0  0  0  0
  5 16  1  0  0  0  0
  6  7  1  0  0  0  0
  6 17  1  0  0  0  0
  6 18  1  0  0  0  0
  7 11  1  0  0  0  0
  7 19  1  0  0  0  0
  7 20  1  0  0  0  0
  8  9  1  0  0  0  0
  8 21  1  0  0  0  0
  8 22  1  0  0  0  0
  8 23  1  0  0  0  0
  9 10  1  0  0  0  0
  9 24  1  0  0  0  0
  9 25  1  0  0  0  0
 10 11  1  0  0  0  0
 10 26  1  0  0  0  0
 10 27  1  0  0  0  0
 11 28  1  0  0  0  0
 11 29  1  0  0  0  0
M  END
