  N-OCTYLAMINE.mol	111-86-4
  NIST    07241414473D 1   1.00000  -371.05232
Copyright by the U.S. Sec. Commerce on behalf of U.S.A. All rights reserved.
 28 27  0  0  0  0  0  0  0  0999 V2000
   51.9711    0.0190   -0.0021 C    0  0  0  0  0  0  0  0  0  0  0  0
   53.3236    0.7431   -0.0099 C    0  0  0  0  0  0  0  0  0  0  0  0
   54.5279   -0.2074   -0.0125 C    0  0  0  0  0  0  0  0  0  0  0  0
   50.7664    0.9686   -0.0011 C    0  0  0  0  0  0  0  0  0  0  0  0
   55.8781    0.5197   -0.0131 C    0  0  0  0  0  0  0  0  0  0  0  0
   49.4136    0.2451    0.0082 C    0  0  0  0  0  0  0  0  0  0  0  0
   57.0782   -0.4291   -0.0264 C    0  0  0  0  0  0  0  0  0  0  0  0
   48.2163    1.2011    0.0086 C    0  0  0  0  0  0  0  0  0  0  0  0
   58.3365    0.3264    0.0253 N    0  0  0  0  0  0  0  0  0  0  0  0
   51.9095   -0.6446   -0.8777 H    0  0  0  0  0  0  0  0  0  0  0  0
   51.9163   -0.6376    0.8791 H    0  0  0  0  0  0  0  0  0  0  0  0
   53.3863    1.4053    0.8662 H    0  0  0  0  0  0  0  0  0  0  0  0
   53.3783    1.4006   -0.8905 H    0  0  0  0  0  0  0  0  0  0  0  0
   54.4660   -0.8679   -0.8903 H    0  0  0  0  0  0  0  0  0  0  0  0
   54.4708   -0.8662    0.8669 H    0  0  0  0  0  0  0  0  0  0  0  0
   50.8274    1.6328    0.8740 H    0  0  0  0  0  0  0  0  0  0  0  0
   50.8196    1.6249   -0.8828 H    0  0  0  0  0  0  0  0  0  0  0  0
   55.9605    1.1699    0.8674 H    0  0  0  0  0  0  0  0  0  0  0  0
   55.9335    1.1818   -0.8913 H    0  0  0  0  0  0  0  0  0  0  0  0
   49.3522   -0.4185   -0.8662 H    0  0  0  0  0  0  0  0  0  0  0  0
   49.3597   -0.4097    0.8897 H    0  0  0  0  0  0  0  0  0  0  0  0
   56.9957   -1.1036   -0.9001 H    0  0  0  0  0  0  0  0  0  0  0  0
   57.0408   -1.0706    0.8640 H    0  0  0  0  0  0  0  0  0  0  0  0
   47.2663    0.6545    0.0156 H    0  0  0  0  0  0  0  0  0  0  0  0
   48.2312    1.8546    0.8896 H    0  0  0  0  0  0  0  0  0  0  0  0
   48.2234    1.8454   -0.8794 H    0  0  0  0  0  0  0  0  0  0  0  0
   59.1246   -0.3195    0.0445 H    0  0  0  0  0  0  0  0  0  0  0  0
   58.4413    0.8660   -0.8340 H    0  0  0  0  0  0  0  0  0  0  0  0
  1  2  1  0
  1  4  1  0
  2  3  1  0
  3  5  1  0
  4  6  1  0
  5  7  1  0
  6  8  1  0
  7  9  1  0
  1 10  1  0
  1 11  1  0
  2 12  1  0
  2 13  1  0
  3 14  1  0
  3 15  1  0
  4 16  1  0
  4 17  1  0
  5 18  1  0
  5 19  1  0
  6 20  1  0
  6 21  1  0
  7 22  1  0
  7 23  1  0
  8 24  1  0
  8 25  1  0
  8 26  1  0
  9 27  1  0
  9 28  1  0
M  END
