  N-PENTYL PROPIONATE.mol	624-54-4
  NIST    06291416283D 1   1.00000  -464.96312
Copyright by the U.S. Sec. Commerce on behalf of U.S.A. All rights reserved.
 26 25  0  0  0  0  0  0  0  0999 V2000
   51.8324   29.2196   -0.6801 O    0  0  0  0  0  0  0  0  0  0  0  0
   51.2165   30.0033    0.2363 C    0  0  0  0  0  0  0  0  0  0  0  0
   49.9875   30.6614   -0.3633 C    0  0  0  0  0  0  0  0  0  0  0  0
   51.6029   30.1462    1.3768 O    0  0  0  0  0  0  0  0  0  0  0  0
   53.0258   28.5259   -0.2466 C    0  0  0  0  0  0  0  0  0  0  0  0
   49.2453   31.5507    0.6321 C    0  0  0  0  0  0  0  0  0  0  0  0
   54.2703   29.3932   -0.4062 C    0  0  0  0  0  0  0  0  0  0  0  0
   55.5549   28.6316   -0.0527 C    0  0  0  0  0  0  0  0  0  0  0  0
   56.8225   29.4827   -0.2056 C    0  0  0  0  0  0  0  0  0  0  0  0
   58.1045   28.7206    0.1445 C    0  0  0  0  0  0  0  0  0  0  0  0
   50.3112   31.2298   -1.2447 H    0  0  0  0  0  0  0  0  0  0  0  0
   49.3389   29.8657   -0.7519 H    0  0  0  0  0  0  0  0  0  0  0  0
   52.8960   28.2129    0.7930 H    0  0  0  0  0  0  0  0  0  0  0  0
   53.0753   27.6408   -0.8873 H    0  0  0  0  0  0  0  0  0  0  0  0
   48.3676   32.0037    0.1594 H    0  0  0  0  0  0  0  0  0  0  0  0
   48.9118   30.9746    1.5003 H    0  0  0  0  0  0  0  0  0  0  0  0
   49.8921   32.3524    1.0006 H    0  0  0  0  0  0  0  0  0  0  0  0
   54.3209   29.7536   -1.4423 H    0  0  0  0  0  0  0  0  0  0  0  0
   54.1699   30.2742    0.2391 H    0  0  0  0  0  0  0  0  0  0  0  0
   55.4897   28.2638    0.9818 H    0  0  0  0  0  0  0  0  0  0  0  0
   55.6405   27.7386   -0.6899 H    0  0  0  0  0  0  0  0  0  0  0  0
   56.8862   29.8532   -1.2384 H    0  0  0  0  0  0  0  0  0  0  0  0
   56.7381   30.3730    0.4330 H    0  0  0  0  0  0  0  0  0  0  0  0
   58.9908   29.3536    0.0238 H    0  0  0  0  0  0  0  0  0  0  0  0
   58.0856   28.3686    1.1833 H    0  0  0  0  0  0  0  0  0  0  0  0
   58.2321   27.8422   -0.5001 H    0  0  0  0  0  0  0  0  0  0  0  0
  1  2  1  0
  1  5  1  0
  2  3  1  0
  2  4  2  0
  3  6  1  0
  5  7  1  0
  7  8  1  0
  8  9  1  0
  9 10  1  0
  3 11  1  0
  3 12  1  0
  5 13  1  0
  5 14  1  0
  6 15  1  0
  6 16  1  0
  6 17  1  0
  7 18  1  0
  7 19  1  0
  8 20  1  0
  8 21  1  0
  9 22  1  0
  9 23  1  0
 10 24  1  0
 10 25  1  0
 10 26  1  0
M  END
