  N-PENTACOSANE.mol	629-99-2
  NIST    07021511233D 1   1.00000  -984.03635
Copyright by the U.S. Sec. Commerce on behalf of U.S.A. All rights reserved.
 77 76  0  0  0  0  0  0  0  0999 V2000
   12.5565    6.2707    2.7921 C    0  0  0  0  0  0  0  0  0  0  0  0
   11.0494    6.4333    3.0590 C    0  0  0  0  0  0  0  0  0  0  0  0
   10.2253    6.8984    1.8501 C    0  0  0  0  0  0  0  0  0  0  0  0
   12.9109    5.1258    1.8310 C    0  0  0  0  0  0  0  0  0  0  0  0
    8.7336    7.0769    2.1643 C    0  0  0  0  0  0  0  0  0  0  0  0
   14.4160    4.9773    1.5419 C    0  0  0  0  0  0  0  0  0  0  0  0
    7.9138    7.5473    0.9544 C    0  0  0  0  0  0  0  0  0  0  0  0
   15.3123    4.6193    2.7416 C    0  0  0  0  0  0  0  0  0  0  0  0
    6.4171    7.7678    1.2317 C    0  0  0  0  0  0  0  0  0  0  0  0
   14.9936    3.2634    3.3895 C    0  0  0  0  0  0  0  0  0  0  0  0
    5.6306    6.4913    1.5631 C    0  0  0  0  0  0  0  0  0  0  0  0
   15.9444    2.8609    4.5307 C    0  0  0  0  0  0  0  0  0  0  0  0
    4.1248    6.7326    1.7331 C    0  0  0  0  0  0  0  0  0  0  0  0
   17.3787    2.5349    4.0900 C    0  0  0  0  0  0  0  0  0  0  0  0
    3.3339    5.4593    2.0620 C    0  0  0  0  0  0  0  0  0  0  0  0
   18.2735    2.0604    5.2430 C    0  0  0  0  0  0  0  0  0  0  0  0
    1.8255    5.7047    2.2117 C    0  0  0  0  0  0  0  0  0  0  0  0
   19.7034    1.7151    4.8076 C    0  0  0  0  0  0  0  0  0  0  0  0
    0.9851    4.4415    2.4690 C    0  0  0  0  0  0  0  0  0  0  0  0
   20.5957    1.2303    5.9575 C    0  0  0  0  0  0  0  0  0  0  0  0
    1.2422    3.7697    3.8262 C    0  0  0  0  0  0  0  0  0  0  0  0
   22.0237    0.8789    5.5207 C    0  0  0  0  0  0  0  0  0  0  0  0
    0.4021    2.5062    4.0816 C    0  0  0  0  0  0  0  0  0  0  0  0
   22.9064    0.3894    6.6734 C    0  0  0  0  0  0  0  0  0  0  0  0
   -1.1065    2.7550    4.2013 C    0  0  0  0  0  0  0  0  0  0  0  0
   13.0616    6.1077    3.7535 H    0  0  0  0  0  0  0  0  0  0  0  0
   12.9591    7.2150    2.3949 H    0  0  0  0  0  0  0  0  0  0  0  0
   10.9118    7.1562    3.8758 H    0  0  0  0  0  0  0  0  0  0  0  0
   10.6444    5.4793    3.4291 H    0  0  0  0  0  0  0  0  0  0  0  0
   10.6356    7.8495    1.4780 H    0  0  0  0  0  0  0  0  0  0  0  0
   10.3295    6.1799    1.0255 H    0  0  0  0  0  0  0  0  0  0  0  0
   12.3997    5.2830    0.8723 H    0  0  0  0  0  0  0  0  0  0  0  0
   12.5107    4.1835    2.2314 H    0  0  0  0  0  0  0  0  0  0  0  0
    8.3338    6.1254    2.5412 H    0  0  0  0  0  0  0  0  0  0  0  0
    8.6172    7.8019    2.9842 H    0  0  0  0  0  0  0  0  0  0  0  0
   14.7816    5.9154    1.0998 H    0  0  0  0  0  0  0  0  0  0  0  0
   14.5477    4.2074    0.7679 H    0  0  0  0  0  0  0  0  0  0  0  0
    8.3454    8.4873    0.5814 H    0  0  0  0  0  0  0  0  0  0  0  0
    8.0247    6.8190    0.1369 H    0  0  0  0  0  0  0  0  0  0  0  0
   15.2510    5.4067    3.5063 H    0  0  0  0  0  0  0  0  0  0  0  0
   16.3537    4.6219    2.3939 H    0  0  0  0  0  0  0  0  0  0  0  0
    6.3019    8.4898    2.0541 H    0  0  0  0  0  0  0  0  0  0  0  0
    5.9630    8.2405    0.3490 H    0  0  0  0  0  0  0  0  0  0  0  0
   13.9686    3.2814    3.7828 H    0  0  0  0  0  0  0  0  0  0  0  0
   15.0072    2.4801    2.6161 H    0  0  0  0  0  0  0  0  0  0  0  0
    5.7904    5.7525    0.7630 H    0  0  0  0  0  0  0  0  0  0  0  0
    6.0256    6.0350    2.4811 H    0  0  0  0  0  0  0  0  0  0  0  0
   15.9680    3.6629    5.2838 H    0  0  0  0  0  0  0  0  0  0  0  0
   15.5278    1.9806    5.0407 H    0  0  0  0  0  0  0  0  0  0  0  0
    3.7231    7.1820    0.8126 H    0  0  0  0  0  0  0  0  0  0  0  0
    3.9626    7.4760    2.5280 H    0  0  0  0  0  0  0  0  0  0  0  0
   17.3471    1.7564    3.3126 H    0  0  0  0  0  0  0  0  0  0  0  0
   17.8387    3.4149    3.6196 H    0  0  0  0  0  0  0  0  0  0  0  0
    3.7374    5.0174    2.9834 H    0  0  0  0  0  0  0  0  0  0  0  0
    3.5007    4.7145    1.2689 H    0  0  0  0  0  0  0  0  0  0  0  0
   18.3080    2.8382    6.0204 H    0  0  0  0  0  0  0  0  0  0  0  0
   17.8162    1.1792    5.7173 H    0  0  0  0  0  0  0  0  0  0  0  0
    1.4578    6.1901    1.2964 H    0  0  0  0  0  0  0  0  0  0  0  0
    1.6537    6.4257    3.0252 H    0  0  0  0  0  0  0  0  0  0  0  0
   20.1635    2.5975    4.3382 H    0  0  0  0  0  0  0  0  0  0  0  0
   19.6672    0.9414    4.0262 H    0  0  0  0  0  0  0  0  0  0  0  0
    1.1719    3.7135    1.6648 H    0  0  0  0  0  0  0  0  0  0  0  0
   -0.0761    4.7120    2.3931 H    0  0  0  0  0  0  0  0  0  0  0  0
   20.1347    0.3493    6.4287 H    0  0  0  0  0  0  0  0  0  0  0  0
   20.6360    2.0043    6.7387 H    0  0  0  0  0  0  0  0  0  0  0  0
    2.3036    3.5004    3.9045 H    0  0  0  0  0  0  0  0  0  0  0  0
    1.0522    4.4973    4.6302 H    0  0  0  0  0  0  0  0  0  0  0  0
   22.4865    1.7599    5.0535 H    0  0  0  0  0  0  0  0  0  0  0  0
   21.9827    0.1075    4.7383 H    0  0  0  0  0  0  0  0  0  0  0  0
    0.7570    2.0319    5.0065 H    0  0  0  0  0  0  0  0  0  0  0  0
    0.5897    1.7797    3.2777 H    0  0  0  0  0  0  0  0  0  0  0  0
   23.9178    0.1455    6.3285 H    0  0  0  0  0  0  0  0  0  0  0  0
   22.9966    1.1529    7.4561 H    0  0  0  0  0  0  0  0  0  0  0  0
   22.4870   -0.5113    7.1387 H    0  0  0  0  0  0  0  0  0  0  0  0
   -1.5332    3.1473    3.2715 H    0  0  0  0  0  0  0  0  0  0  0  0
   -1.6399    1.8277    4.4405 H    0  0  0  0  0  0  0  0  0  0  0  0
   -1.3246    3.4783    4.9973 H    0  0  0  0  0  0  0  0  0  0  0  0
  1  2  1  0  0  0  0
  1  4  1  0  0  0  0
  1 26  1  0  0  0  0
  1 27  1  0  0  0  0
  2  3  1  0  0  0  0
  2 28  1  0  0  0  0
  2 29  1  0  0  0  0
  3  5  1  0  0  0  0
  3 30  1  0  0  0  0
  3 31  1  0  0  0  0
  4  6  1  0  0  0  0
  4 32  1  0  0  0  0
  4 33  1  0  0  0  0
  5  7  1  0  0  0  0
  5 34  1  0  0  0  0
  5 35  1  0  0  0  0
  6  8  1  0  0  0  0
  6 36  1  0  0  0  0
  6 37  1  0  0  0  0
  7  9  1  0  0  0  0
  7 38  1  0  0  0  0
  7 39  1  0  0  0  0
  8 10  1  0  0  0  0
  8 40  1  0  0  0  0
  8 41  1  0  0  0  0
  9 11  1  0  0  0  0
  9 42  1  0  0  0  0
  9 43  1  0  0  0  0
 10 12  1  0  0  0  0
 10 44  1  0  0  0  0
 10 45  1  0  0  0  0
 11 13  1  0  0  0  0
 11 46  1  0  0  0  0
 11 47  1  0  0  0  0
 12 14  1  0  0  0  0
 12 48  1  0  0  0  0
 12 49  1  0  0  0  0
 13 15  1  0  0  0  0
 13 50  1  0  0  0  0
 13 51  1  0  0  0  0
 14 16  1  0  0  0  0
 14 52  1  0  0  0  0
 14 53  1  0  0  0  0
 15 17  1  0  0  0  0
 15 54  1  0  0  0  0
 15 55  1  0  0  0  0
 16 18  1  0  0  0  0
 16 56  1  0  0  0  0
 16 57  1  0  0  0  0
 17 19  1  0  0  0  0
 17 58  1  0  0  0  0
 17 59  1  0  0  0  0
 18 20  1  0  0  0  0
 18 60  1  0  0  0  0
 18 61  1  0  0  0  0
 19 21  1  0  0  0  0
 19 62  1  0  0  0  0
 19 63  1  0  0  0  0
 20 22  1  0  0  0  0
 20 64  1  0  0  0  0
 20 65  1  0  0  0  0
 21 23  1  0  0  0  0
 21 66  1  0  0  0  0
 21 67  1  0  0  0  0
 22 24  1  0  0  0  0
 22 68  1  0  0  0  0
 22 69  1  0  0  0  0
 23 25  1  0  0  0  0
 23 70  1  0  0  0  0
 23 71  1  0  0  0  0
 24 72  1  0  0  0  0
 24 73  1  0  0  0  0
 24 74  1  0  0  0  0
 25 75  1  0  0  0  0
 25 76  1  0  0  0  0
 25 77  1  0  0  0  0
M  END
