
 OpenBabel05281921133D

 18 17  0  0  0  0  0  0  0  0999 V2000
    1.9295    2.2534    1.9460 C   0  0  0  0  0  0  0  0  0  0  0  0
    3.1547    1.6610    1.2394 C   0  0  0  0  0  0  0  0  0  0  0  0
    4.3763    1.6613    2.1656 C   0  0  0  0  0  0  0  0  0  0  0  0
    0.7089    2.2551    1.0264 C   0  0  0  0  0  0  0  0  0  0  0  0
    5.5981    1.0725    1.4663 C   0  0  0  0  0  0  0  0  0  0  0  0
   -0.3840    2.8025    1.7091 O   0  0  0  0  0  0  0  0  0  0  0  0
    2.1500    3.2985    2.2566 H   0  0  0  0  0  0  0  0  0  0  0  0
    1.6983    1.6526    2.8531 H   0  0  0  0  0  0  0  0  0  0  0  0
    2.9302    0.6166    0.9288 H   0  0  0  0  0  0  0  0  0  0  0  0
    3.3822    2.2632    0.3320 H   0  0  0  0  0  0  0  0  0  0  0  0
    4.6089    2.7031    2.4772 H   0  0  0  0  0  0  0  0  0  0  0  0
    4.1572    1.0579    3.0734 H   0  0  0  0  0  0  0  0  0  0  0  0
    0.4760    1.2086    0.7263 H   0  0  0  0  0  0  0  0  0  0  0  0
    0.9316    2.8688    0.1246 H   0  0  0  0  0  0  0  0  0  0  0  0
    5.4007    0.0222    1.1632 H   0  0  0  0  0  0  0  0  0  0  0  0
    5.8533    1.6707    0.5657 H   0  0  0  0  0  0  0  0  0  0  0  0
    6.4658    1.0854    2.1591 H   0  0  0  0  0  0  0  0  0  0  0  0
   -1.1451    2.7802    1.0727 H   0  0  0  0  0  0  0  0  0  0  0  0
  1  2  1  0  0  0  0
  1  4  1  0  0  0  0
  1  7  1  0  0  0  0
  1  8  1  0  0  0  0
  2  3  1  0  0  0  0
  2  9  1  0  0  0  0
  2 10  1  0  0  0  0
  3  5  1  0  0  0  0
  3 11  1  0  0  0  0
  3 12  1  0  0  0  0
  4  6  1  0  0  0  0
  4 13  1  0  0  0  0
  4 14  1  0  0  0  0
  5 15  1  0  0  0  0
  5 16  1  0  0  0  0
  5 17  1  0  0  0  0
  6 18  1  0  0  0  0
M  END
