  N-PROPYLCYCLOHEXANE.mol	1678-92-8
  NIST    07011520063D 1   1.00000  -353.81126
Copyright by the U.S. Sec. Commerce on behalf of U.S.A. All rights reserved.
 27 27  0  0  0  0  0  0  0  0999 V2000
    5.5238    1.9693    2.1893 C    0  0  0  0  0  0  0  0  0  0  0  0
    4.2461    2.0591    1.3433 C    0  0  0  0  0  0  0  0  0  0  0  0
    3.2515    3.1564    1.7632 C    0  0  0  0  0  0  0  0  0  0  0  0
    6.4511    0.8318    1.7475 C    0  0  0  0  0  0  0  0  0  0  0  0
    3.7559    4.5853    1.4940 C    0  0  0  0  0  0  0  0  0  0  0  0
    1.8818    2.9509    1.0632 C    0  0  0  0  0  0  0  0  0  0  0  0
    2.8177    5.6476    2.1170 C    0  0  0  0  0  0  0  0  0  0  0  0
    1.0408    4.2459    0.9690 C    0  0  0  0  0  0  0  0  0  0  0  0
    1.3402    5.1883    2.1419 C    0  0  0  0  0  0  0  0  0  0  0  0
    5.2482    1.8271    3.2442 H    0  0  0  0  0  0  0  0  0  0  0  0
    6.0729    2.9188    2.1433 H    0  0  0  0  0  0  0  0  0  0  0  0
    3.7323    1.0867    1.3853 H    0  0  0  0  0  0  0  0  0  0  0  0
    4.5174    2.2093    0.2866 H    0  0  0  0  0  0  0  0  0  0  0  0
    3.0972    3.0617    2.8499 H    0  0  0  0  0  0  0  0  0  0  0  0
    6.7719    0.9638    0.7067 H    0  0  0  0  0  0  0  0  0  0  0  0
    5.9472   -0.1404    1.8158 H    0  0  0  0  0  0  0  0  0  0  0  0
    7.3522    0.7844    2.3697 H    0  0  0  0  0  0  0  0  0  0  0  0
    3.8179    4.7308    0.4055 H    0  0  0  0  0  0  0  0  0  0  0  0
    4.7737    4.7245    1.8760 H    0  0  0  0  0  0  0  0  0  0  0  0
    1.3209    2.1774    1.6043 H    0  0  0  0  0  0  0  0  0  0  0  0
    2.0493    2.5538    0.0524 H    0  0  0  0  0  0  0  0  0  0  0  0
    2.9075    6.5830    1.5501 H    0  0  0  0  0  0  0  0  0  0  0  0
    3.1441    5.8774    3.1393 H    0  0  0  0  0  0  0  0  0  0  0  0
   -0.0275    3.9999    0.9311 H    0  0  0  0  0  0  0  0  0  0  0  0
    1.2648    4.7698    0.0295 H    0  0  0  0  0  0  0  0  0  0  0  0
    0.6725    6.0582    2.1219 H    0  0  0  0  0  0  0  0  0  0  0  0
    1.1275    4.6626    3.0830 H    0  0  0  0  0  0  0  0  0  0  0  0
  1  2  1  0  0  0  0
  1  4  1  0  0  0  0
  1 10  1  0  0  0  0
  1 11  1  0  0  0  0
  2  3  1  0  0  0  0
  2 12  1  0  0  0  0
  2 13  1  0  0  0  0
  3  6  1  0  0  0  0
  3 14  1  0  0  0  0
  4 15  1  0  0  0  0
  4 16  1  0  0  0  0
  4 17  1  0  0  0  0
  5  3  1  0  0  0  0
  5 18  1  0  0  0  0
  5 19  1  0  0  0  0
  6  8  1  0  0  0  0
  6 20  1  0  0  0  0
  6 21  1  0  0  0  0
  7  5  1  0  0  0  0
  7 22  1  0  0  0  0
  7 23  1  0  0  0  0
  8  9  1  0  0  0  0
  8 24  1  0  0  0  0
  8 25  1  0  0  0  0
  9  7  1  0  0  0  0
  9 26  1  0  0  0  0
  9 27  1  0  0  0  0
M  END
