
 OpenBabel11281917583D

 27 27  0  0  0  0  0  0  0  0999 V2000
   -3.5864    7.4261    3.0311 C   0  0  0  0  0  0  0  0  0  0  0  0
   -2.5869    6.2990    3.3241 C   0  0  0  0  0  0  0  0  0  0  0  0
   -1.9486    5.8013    2.0225 C   0  0  0  0  0  0  0  0  0  0  0  0
   -3.1137    5.4572    3.8256 H   0  0  0  0  0  0  0  0  0  0  0  0
   -1.7950    6.6706    4.0094 H   0  0  0  0  0  0  0  0  0  0  0  0
   -4.6906    6.9457    2.0618 C   0  0  0  0  0  0  0  0  0  0  0  0
   -3.0423    8.2886    2.5850 H   0  0  0  0  0  0  0  0  0  0  0  0
   -4.0401    7.7607    3.9894 H   0  0  0  0  0  0  0  0  0  0  0  0
   -4.0376    6.4290    0.7564 C   0  0  0  0  0  0  0  0  0  0  0  0
   -5.2390    6.1066    2.5471 H   0  0  0  0  0  0  0  0  0  0  0  0
   -5.6895    8.0983    1.8074 C   0  0  0  0  0  0  0  0  0  0  0  0
   -3.0328    5.3076    1.0579 C   0  0  0  0  0  0  0  0  0  0  0  0
   -3.5108    7.2649    0.2447 H   0  0  0  0  0  0  0  0  0  0  0  0
   -4.8035    6.0220    0.0652 H   0  0  0  0  0  0  0  0  0  0  0  0
   -2.5613    4.9643    0.1120 H   0  0  0  0  0  0  0  0  0  0  0  0
   -3.5676    4.4444    1.5125 H   0  0  0  0  0  0  0  0  0  0  0  0
   -1.2411    4.9740    2.2452 H   0  0  0  0  0  0  0  0  0  0  0  0
   -1.3776    6.6295    1.5475 H   0  0  0  0  0  0  0  0  0  0  0  0
   -6.8947    7.6861    0.9474 C   0  0  0  0  0  0  0  0  0  0  0  0
   -5.1629    8.9518    1.3254 H   0  0  0  0  0  0  0  0  0  0  0  0
   -6.0781    8.4412    2.7922 H   0  0  0  0  0  0  0  0  0  0  0  0
   -7.8778    8.8433    0.7920 C   0  0  0  0  0  0  0  0  0  0  0  0
   -7.4203    6.8329    1.4287 H   0  0  0  0  0  0  0  0  0  0  0  0
   -6.5646    7.3805   -0.0665 H   0  0  0  0  0  0  0  0  0  0  0  0
   -8.2576    9.1647    1.7853 H   0  0  0  0  0  0  0  0  0  0  0  0
   -8.7395    8.5193    0.1710 H   0  0  0  0  0  0  0  0  0  0  0  0
   -7.3842    9.7048    0.2937 H   0  0  0  0  0  0  0  0  0  0  0  0
  1  2  1  0  0  0  0
  1  6  1  0  0  0  0
  1  7  1  0  0  0  0
  1  8  1  0  0  0  0
  2  3  1  0  0  0  0
  2  4  1  0  0  0  0
  2  5  1  0  0  0  0
  3 17  1  0  0  0  0
  3 18  1  0  0  0  0
  6  9  1  0  0  0  0
  6 10  1  0  0  0  0
  6 11  1  0  0  0  0
  9 12  1  0  0  0  0
  9 13  1  0  0  0  0
  9 14  1  0  0  0  0
 11 19  1  0  0  0  0
 11 20  1  0  0  0  0
 11 21  1  0  0  0  0
 12  3  1  0  0  0  0
 12 15  1  0  0  0  0
 12 16  1  0  0  0  0
 19 22  1  0  0  0  0
 19 23  1  0  0  0  0
 19 24  1  0  0  0  0
 22 25  1  0  0  0  0
 22 26  1  0  0  0  0
 22 27  1  0  0  0  0
M  END
