  N-PROPYLCYCLOPROPANE.mol	2415-72-7
  NIST    06301517373D 1   1.00000  -235.83856
Copyright by the U.S. Sec. Commerce on behalf of U.S.A. All rights reserved.
 18 18  0  0  0  0  0  0  0  0999 V2000
    2.4531    1.1510    2.3276 C    0  0  0  0  0  0  0  0  0  0  0  0
    2.1129    1.9991    1.0895 C    0  0  0  0  0  0  0  0  0  0  0  0
    2.2301    1.8568    3.6529 C    0  0  0  0  0  0  0  0  0  0  0  0
    3.0128    3.2258    0.9001 C    0  0  0  0  0  0  0  0  0  0  0  0
    1.9129    1.0640    4.8974 C    0  0  0  0  0  0  0  0  0  0  0  0
    0.8461    1.9205    4.2563 C    0  0  0  0  0  0  0  0  0  0  0  0
    3.5002    0.8186    2.2625 H    0  0  0  0  0  0  0  0  0  0  0  0
    1.8423    0.2371    2.3107 H    0  0  0  0  0  0  0  0  0  0  0  0
    1.0643    2.3207    1.1535 H    0  0  0  0  0  0  0  0  0  0  0  0
    2.1857    1.3618    0.1977 H    0  0  0  0  0  0  0  0  0  0  0  0
    2.8500    2.7380    3.8105 H    0  0  0  0  0  0  0  0  0  0  0  0
    2.9165    3.9333    1.7316 H    0  0  0  0  0  0  0  0  0  0  0  0
    4.0689    2.9350    0.8321 H    0  0  0  0  0  0  0  0  0  0  0  0
    2.7574    3.7648   -0.0195 H    0  0  0  0  0  0  0  0  0  0  0  0
    1.8222   -0.0157    4.8024 H    0  0  0  0  0  0  0  0  0  0  0  0
    2.3370    1.3886    5.8439 H    0  0  0  0  0  0  0  0  0  0  0  0
    0.5373    2.8302    4.7645 H    0  0  0  0  0  0  0  0  0  0  0  0
    0.0399    1.4149    3.7291 H    0  0  0  0  0  0  0  0  0  0  0  0
  1  2  1  0  0  0  0
  1  3  1  0  0  0  0
  1  7  1  0  0  0  0
  1  8  1  0  0  0  0
  2  4  1  0  0  0  0
  2  9  1  0  0  0  0
  2 10  1  0  0  0  0
  3  5  1  0  0  0  0
  3 11  1  0  0  0  0
  4 12  1  0  0  0  0
  4 13  1  0  0  0  0
  4 14  1  0  0  0  0
  5  6  1  0  0  0  0
  5 15  1  0  0  0  0
  5 16  1  0  0  0  0
  6  3  1  0  0  0  0
  6 17  1  0  0  0  0
  6 18  1  0  0  0  0
M  END
