
 OpenBabel12031916373D

 12 11  0  0  0  0  0  0  0  0999 V2000
   -0.1903    1.0230    0.6665 C   0  0  0  0  0  0  0  0  0  0  0  0
    1.2316    0.5013    0.8679 C   0  0  0  0  0  0  0  0  0  0  0  0
    2.1454    1.5856    1.4319 C   0  0  0  0  0  0  0  0  0  0  0  0
   -0.9903   -0.0030    0.1493 O   0  0  0  0  0  0  0  0  0  0  0  0
   -0.5989    1.3577    1.6466 H   0  0  0  0  0  0  0  0  0  0  0  0
   -0.1686    1.8764   -0.0482 H   0  0  0  0  0  0  0  0  0  0  0  0
    1.6390    0.1548   -0.1068 H   0  0  0  0  0  0  0  0  0  0  0  0
    1.2127   -0.3590    1.5719 H   0  0  0  0  0  0  0  0  0  0  0  0
    1.7690    1.9339    2.4174 H   0  0  0  0  0  0  0  0  0  0  0  0
    2.1964    2.4490    0.7346 H   0  0  0  0  0  0  0  0  0  0  0  0
    3.1689    1.1766    1.5667 H   0  0  0  0  0  0  0  0  0  0  0  0
   -1.8972    0.3846    0.0386 H   0  0  0  0  0  0  0  0  0  0  0  0
  1  2  1  0  0  0  0
  1  4  1  0  0  0  0
  1  5  1  0  0  0  0
  1  6  1  0  0  0  0
  2  3  1  0  0  0  0
  2  7  1  0  0  0  0
  2  8  1  0  0  0  0
  3  9  1  0  0  0  0
  3 10  1  0  0  0  0
  3 11  1  0  0  0  0
  4 12  1  0  0  0  0
M  END
