  N-PROPYLCYCLOPENTANE.mol	2040-96-2
  NIST    06301523413D 1   1.00000  -314.49678
Copyright by the U.S. Sec. Commerce on behalf of U.S.A. All rights reserved.
 24 24  0  0  0  0  0  0  0  0999 V2000
    1.8600    1.1645    1.5502 C    0  0  0  0  0  0  0  0  0  0  0  0
    2.7353    2.3573    1.9579 C    0  0  0  0  0  0  0  0  0  0  0  0
    3.9335    2.6182    1.0236 C    0  0  0  0  0  0  0  0  0  0  0  0
    0.6556    0.9617    2.4760 C    0  0  0  0  0  0  0  0  0  0  0  0
    4.6852    3.9210    1.3755 C    0  0  0  0  0  0  0  0  0  0  0  0
    5.0580    1.5646    1.1497 C    0  0  0  0  0  0  0  0  0  0  0  0
    5.6548    3.5393    2.5213 C    0  0  0  0  0  0  0  0  0  0  0  0
    5.8933    2.0065    2.3770 C    0  0  0  0  0  0  0  0  0  0  0  0
    1.5079    1.3139    0.5193 H    0  0  0  0  0  0  0  0  0  0  0  0
    2.4619    0.2460    1.5345 H    0  0  0  0  0  0  0  0  0  0  0  0
    2.1065    3.2597    1.9804 H    0  0  0  0  0  0  0  0  0  0  0  0
    3.0875    2.2107    2.9897 H    0  0  0  0  0  0  0  0  0  0  0  0
    3.5537    2.6597   -0.0069 H    0  0  0  0  0  0  0  0  0  0  0  0
    0.0443    0.1090    2.1587 H    0  0  0  0  0  0  0  0  0  0  0  0
    0.0098    1.8486    2.4869 H    0  0  0  0  0  0  0  0  0  0  0  0
    0.9759    0.7754    3.5087 H    0  0  0  0  0  0  0  0  0  0  0  0
    4.0102    4.7415    1.6457 H    0  0  0  0  0  0  0  0  0  0  0  0
    5.2577    4.2526    0.4995 H    0  0  0  0  0  0  0  0  0  0  0  0
    5.6794    1.5958    0.2453 H    0  0  0  0  0  0  0  0  0  0  0  0
    4.6857    0.5383    1.2410 H    0  0  0  0  0  0  0  0  0  0  0  0
    5.2099    3.7681    3.4962 H    0  0  0  0  0  0  0  0  0  0  0  0
    6.5879    4.1100    2.4647 H    0  0  0  0  0  0  0  0  0  0  0  0
    6.9532    1.7620    2.2492 H    0  0  0  0  0  0  0  0  0  0  0  0
    5.5615    1.4810    3.2796 H    0  0  0  0  0  0  0  0  0  0  0  0
  1  2  1  0  0  0  0
  1  4  1  0  0  0  0
  1  9  1  0  0  0  0
  1 10  1  0  0  0  0
  2  3  1  0  0  0  0
  2 11  1  0  0  0  0
  2 12  1  0  0  0  0
  3  5  1  0  0  0  0
  3 13  1  0  0  0  0
  4 14  1  0  0  0  0
  4 15  1  0  0  0  0
  4 16  1  0  0  0  0
  5  7  1  0  0  0  0
  5 17  1  0  0  0  0
  5 18  1  0  0  0  0
  6  3  1  0  0  0  0
  6 19  1  0  0  0  0
  6 20  1  0  0  0  0
  7  8  1  0  0  0  0
  7 21  1  0  0  0  0
  7 22  1  0  0  0  0
  8  6  1  0  0  0  0
  8 23  1  0  0  0  0
  8 24  1  0  0  0  0
M  END
