
 OpenBabel06071909173D

 12 11  0  0  0  0  0  0  0  0999 V2000
    1.4530    1.5556    1.4270 C   0  0  0  0  0  0  0  0  0  0  0  0
    2.7762    1.0930    0.8190 C   0  0  0  0  0  0  0  0  0  0  0  0
    3.9658    1.7430    1.5199 C   0  0  0  0  0  0  0  0  0  0  0  0
    0.3932    0.9353    0.7545 O   0  0  0  0  0  0  0  0  0  0  0  0
    1.4278    1.2746    2.5041 H   0  0  0  0  0  0  0  0  0  0  0  0
    1.3681    2.6605    1.3199 H   0  0  0  0  0  0  0  0  0  0  0  0
    2.8003    1.3611   -0.2597 H   0  0  0  0  0  0  0  0  0  0  0  0
    2.8593   -0.0116    0.9133 H   0  0  0  0  0  0  0  0  0  0  0  0
    3.9745    1.4724    2.5973 H   0  0  0  0  0  0  0  0  0  0  0  0
    3.9153    2.8484    1.4215 H   0  0  0  0  0  0  0  0  0  0  0  0
    4.9103    1.3877    1.0565 H   0  0  0  0  0  0  0  0  0  0  0  0
   -0.4373    1.2671    1.1846 H   0  0  0  0  0  0  0  0  0  0  0  0
  1  2  1  0  0  0  0
  1  4  1  0  0  0  0
  1  5  1  0  0  0  0
  1  6  1  0  0  0  0
  2  3  1  0  0  0  0
  2  7  1  0  0  0  0
  2  8  1  0  0  0  0
  3  9  1  0  0  0  0
  3 10  1  0  0  0  0
  3 11  1  0  0  0  0
  4 12  1  0  0  0  0
M  END
