  N-PROPYL N-BUTYRATE.mol	105-66-8
  NIST    07011515573D 1   1.00000  -425.64946
Copyright by the U.S. Sec. Commerce on behalf of U.S.A. All rights reserved.
 23 22  0  0  0  0  0  0  0  0999 V2000
    5.7154    1.4587    1.3120 O    0  0  0  0  0  0  0  0  0  0  0  0
    4.6831    2.3058    1.0940 C    0  0  0  0  0  0  0  0  0  0  0  0
    3.3555    1.6135    1.3382 C    0  0  0  0  0  0  0  0  0  0  0  0
    4.8249    3.4600    0.7510 O    0  0  0  0  0  0  0  0  0  0  0  0
    7.0375    2.0063    1.1134 C    0  0  0  0  0  0  0  0  0  0  0  0
    2.1477    2.5136    1.0700 C    0  0  0  0  0  0  0  0  0  0  0  0
    8.0445    0.9024    1.3979 C    0  0  0  0  0  0  0  0  0  0  0  0
    0.8180    1.7965    1.3202 C    0  0  0  0  0  0  0  0  0  0  0  0
    9.4877    1.3842    1.2158 C    0  0  0  0  0  0  0  0  0  0  0  0
    3.3533    1.2477    2.3744 H    0  0  0  0  0  0  0  0  0  0  0  0
    3.3250    0.7114    0.7121 H    0  0  0  0  0  0  0  0  0  0  0  0
    7.1727    2.8634    1.7828 H    0  0  0  0  0  0  0  0  0  0  0  0
    7.1189    2.3773    0.0855 H    0  0  0  0  0  0  0  0  0  0  0  0
    2.1925    2.8746    0.0357 H    0  0  0  0  0  0  0  0  0  0  0  0
    2.2196    3.4071    1.7011 H    0  0  0  0  0  0  0  0  0  0  0  0
    7.8415    0.0554    0.7307 H    0  0  0  0  0  0  0  0  0  0  0  0
    7.8934    0.5389    2.4220 H    0  0  0  0  0  0  0  0  0  0  0  0
    0.7103    0.9164    0.6740 H    0  0  0  0  0  0  0  0  0  0  0  0
    0.7369    1.4546    2.3596 H    0  0  0  0  0  0  0  0  0  0  0  0
   -0.0308    2.4601    1.1218 H    0  0  0  0  0  0  0  0  0  0  0  0
    9.6690    1.7272    0.1901 H    0  0  0  0  0  0  0  0  0  0  0  0
   10.1976    0.5777    1.4267 H    0  0  0  0  0  0  0  0  0  0  0  0
    9.7200    2.2168    1.8907 H    0  0  0  0  0  0  0  0  0  0  0  0
  1  2  1  0  0  0  0
  1  5  1  0  0  0  0
  2  3  1  0  0  0  0
  2  4  2  0  0  0  0
  3  6  1  0  0  0  0
  3 10  1  0  0  0  0
  3 11  1  0  0  0  0
  5  7  1  0  0  0  0
  5 12  1  0  0  0  0
  5 13  1  0  0  0  0
  6  8  1  0  0  0  0
  6 14  1  0  0  0  0
  6 15  1  0  0  0  0
  7  9  1  0  0  0  0
  7 16  1  0  0  0  0
  7 17  1  0  0  0  0
  8 18  1  0  0  0  0
  8 19  1  0  0  0  0
  8 20  1  0  0  0  0
  9 21  1  0  0  0  0
  9 22  1  0  0  0  0
  9 23  1  0  0  0  0
M  END
