  N-TETRATRIACONTANE.mol	14167-59-0
  NIST    07171510143D 1   1.00000 -1337.86964
Copyright by the U.S. Sec. Commerce on behalf of U.S.A. All rights reserved.
104103  0  0  0  0  0  0  0  0999 V2000
   22.2548    1.7137    2.0451 C    0  0  0  0  0  0  0  0  0  0  0  0
   20.9616    1.1373    1.4542 C    0  0  0  0  0  0  0  0  0  0  0  0
   19.6877    1.7091    2.0900 C    0  0  0  0  0  0  0  0  0  0  0  0
   23.5287    1.1419    1.4093 C    0  0  0  0  0  0  0  0  0  0  0  0
   18.3945    1.1329    1.4987 C    0  0  0  0  0  0  0  0  0  0  0  0
   24.8218    1.7180    2.0006 C    0  0  0  0  0  0  0  0  0  0  0  0
   17.1205    1.7048    2.1342 C    0  0  0  0  0  0  0  0  0  0  0  0
   26.0958    1.1460    1.3652 C    0  0  0  0  0  0  0  0  0  0  0  0
   15.8275    1.1291    1.5423 C    0  0  0  0  0  0  0  0  0  0  0  0
   27.3889    1.7216    1.9571 C    0  0  0  0  0  0  0  0  0  0  0  0
   14.5533    1.7015    2.1770 C    0  0  0  0  0  0  0  0  0  0  0  0
   28.6630    1.1491    1.3225 C    0  0  0  0  0  0  0  0  0  0  0  0
   13.2604    1.1263    1.5841 C    0  0  0  0  0  0  0  0  0  0  0  0
   29.9559    1.7241    1.9155 C    0  0  0  0  0  0  0  0  0  0  0  0
   11.9860    1.6993    2.2176 C    0  0  0  0  0  0  0  0  0  0  0  0
   31.2303    1.1508    1.2821 C    0  0  0  0  0  0  0  0  0  0  0  0
   10.6934    1.1250    1.6234 C    0  0  0  0  0  0  0  0  0  0  0  0
   32.5230    1.7250    1.8764 C    0  0  0  0  0  0  0  0  0  0  0  0
    9.4187    1.6987    2.2557 C    0  0  0  0  0  0  0  0  0  0  0  0
   33.7977    1.1510    1.2442 C    0  0  0  0  0  0  0  0  0  0  0  0
    8.1264    1.1254    1.6598 C    0  0  0  0  0  0  0  0  0  0  0  0
   35.0900    1.7241    1.8402 C    0  0  0  0  0  0  0  0  0  0  0  0
    6.8513    1.6996    2.2910 C    0  0  0  0  0  0  0  0  0  0  0  0
   36.3650    1.1496    1.2092 C    0  0  0  0  0  0  0  0  0  0  0  0
    5.5593    1.1274    1.6933 C    0  0  0  0  0  0  0  0  0  0  0  0
   37.6571    1.7215    1.8069 C    0  0  0  0  0  0  0  0  0  0  0  0
    4.2839    1.7016    2.3238 C    0  0  0  0  0  0  0  0  0  0  0  0
   38.9324    1.1469    1.1767 C    0  0  0  0  0  0  0  0  0  0  0  0
    2.9921    1.1310    1.7247 C    0  0  0  0  0  0  0  0  0  0  0  0
   40.2243    1.7173    1.7759 C    0  0  0  0  0  0  0  0  0  0  0  0
    1.7163    1.7043    2.3549 C    0  0  0  0  0  0  0  0  0  0  0  0
   41.5000    1.1436    1.1458 C    0  0  0  0  0  0  0  0  0  0  0  0
    0.4313    1.1297    1.7499 C    0  0  0  0  0  0  0  0  0  0  0  0
   42.7851    1.7180    1.7510 C    0  0  0  0  0  0  0  0  0  0  0  0
   22.2740    1.5250    3.1289 H    0  0  0  0  0  0  0  0  0  0  0  0
   22.2508    2.8077    1.9288 H    0  0  0  0  0  0  0  0  0  0  0  0
   20.9655    0.0433    1.5705 H    0  0  0  0  0  0  0  0  0  0  0  0
   20.9424    1.3260    0.3704 H    0  0  0  0  0  0  0  0  0  0  0  0
   19.7067    1.5203    3.1737 H    0  0  0  0  0  0  0  0  0  0  0  0
   19.6838    2.8032    1.9737 H    0  0  0  0  0  0  0  0  0  0  0  0
   23.5096    1.3308    0.3256 H    0  0  0  0  0  0  0  0  0  0  0  0
   23.5325    0.0478    1.5254 H    0  0  0  0  0  0  0  0  0  0  0  0
   18.3983    0.0388    1.6150 H    0  0  0  0  0  0  0  0  0  0  0  0
   18.3756    1.3216    0.4150 H    0  0  0  0  0  0  0  0  0  0  0  0
   24.8181    2.8121    1.8844 H    0  0  0  0  0  0  0  0  0  0  0  0
   24.8407    1.5292    3.0844 H    0  0  0  0  0  0  0  0  0  0  0  0
   17.1170    2.7989    2.0182 H    0  0  0  0  0  0  0  0  0  0  0  0
   17.1391    1.5158    3.2179 H    0  0  0  0  0  0  0  0  0  0  0  0
   26.0773    1.3351    0.2814 H    0  0  0  0  0  0  0  0  0  0  0  0
   26.0993    0.0519    1.4811 H    0  0  0  0  0  0  0  0  0  0  0  0
   15.8093    1.3178    0.4585 H    0  0  0  0  0  0  0  0  0  0  0  0
   15.8308    0.0350    1.6586 H    0  0  0  0  0  0  0  0  0  0  0  0
   27.3857    2.8157    1.8408 H    0  0  0  0  0  0  0  0  0  0  0  0
   27.4070    1.5329    3.0409 H    0  0  0  0  0  0  0  0  0  0  0  0
   14.5503    2.7956    2.0610 H    0  0  0  0  0  0  0  0  0  0  0  0
   14.5711    1.5123    3.2607 H    0  0  0  0  0  0  0  0  0  0  0  0
   28.6454    1.3382    0.2388 H    0  0  0  0  0  0  0  0  0  0  0  0
   28.6659    0.0550    1.4384 H    0  0  0  0  0  0  0  0  0  0  0  0
   13.2432    1.3150    0.5003 H    0  0  0  0  0  0  0  0  0  0  0  0
   13.2632    0.0322    1.7005 H    0  0  0  0  0  0  0  0  0  0  0  0
   29.9534    2.8182    1.7991 H    0  0  0  0  0  0  0  0  0  0  0  0
   29.9730    1.5355    2.9993 H    0  0  0  0  0  0  0  0  0  0  0  0
   12.0026    1.5101    3.3013 H    0  0  0  0  0  0  0  0  0  0  0  0
   11.9837    2.7935    2.1018 H    0  0  0  0  0  0  0  0  0  0  0  0
   31.2138    1.3401    0.1983 H    0  0  0  0  0  0  0  0  0  0  0  0
   31.2324    0.0567    1.3979 H    0  0  0  0  0  0  0  0  0  0  0  0
   10.6954    0.0309    1.7397 H    0  0  0  0  0  0  0  0  0  0  0  0
   10.6774    1.3137    0.5396 H    0  0  0  0  0  0  0  0  0  0  0  0
   32.5212    2.8191    1.7601 H    0  0  0  0  0  0  0  0  0  0  0  0
   32.5389    1.5363    2.9602 H    0  0  0  0  0  0  0  0  0  0  0  0
    9.4339    1.5091    3.3394 H    0  0  0  0  0  0  0  0  0  0  0  0
    9.4172    2.7929    2.1402 H    0  0  0  0  0  0  0  0  0  0  0  0
   33.7825    1.3405    0.1605 H    0  0  0  0  0  0  0  0  0  0  0  0
   33.7989    0.0568    1.3598 H    0  0  0  0  0  0  0  0  0  0  0  0
    8.1116    1.3146    0.5761 H    0  0  0  0  0  0  0  0  0  0  0  0
    8.1276    0.0312    1.7756 H    0  0  0  0  0  0  0  0  0  0  0  0
   35.0891    2.8182    1.7242 H    0  0  0  0  0  0  0  0  0  0  0  0
   35.1046    1.5350    2.9239 H    0  0  0  0  0  0  0  0  0  0  0  0
    6.8507    2.7938    2.1761 H    0  0  0  0  0  0  0  0  0  0  0  0
    6.8652    1.5094    3.3746 H    0  0  0  0  0  0  0  0  0  0  0  0
   36.3654    0.0553    1.3243 H    0  0  0  0  0  0  0  0  0  0  0  0
   36.3513    1.3396    0.1256 H    0  0  0  0  0  0  0  0  0  0  0  0
    5.5457    1.3176    0.6097 H    0  0  0  0  0  0  0  0  0  0  0  0
    5.5598    0.0332    1.8082 H    0  0  0  0  0  0  0  0  0  0  0  0
   37.6705    1.5315    2.8906 H    0  0  0  0  0  0  0  0  0  0  0  0
   37.6568    2.8157    1.6919 H    0  0  0  0  0  0  0  0  0  0  0  0
    4.2968    1.5103    3.4072 H    0  0  0  0  0  0  0  0  0  0  0  0
    4.2839    2.7960    2.2100 H    0  0  0  0  0  0  0  0  0  0  0  0
   38.9197    1.3380    0.0932 H    0  0  0  0  0  0  0  0  0  0  0  0
   38.9321    0.0525    1.2907 H    0  0  0  0  0  0  0  0  0  0  0  0
    2.9911    0.0364    1.8379 H    0  0  0  0  0  0  0  0  0  0  0  0
    2.9782    1.3226    0.6412 H    0  0  0  0  0  0  0  0  0  0  0  0
   40.2381    1.5258    2.8593 H    0  0  0  0  0  0  0  0  0  0  0  0
   40.2255    2.8118    1.6625 H    0  0  0  0  0  0  0  0  0  0  0  0
    1.7169    2.7979    2.2420 H    0  0  0  0  0  0  0  0  0  0  0  0
    1.7294    1.5115    3.4372 H    0  0  0  0  0  0  0  0  0  0  0  0
   41.4871    1.3364    0.0635 H    0  0  0  0  0  0  0  0  0  0  0  0
   41.4992    0.0501    1.2588 H    0  0  0  0  0  0  0  0  0  0  0  0
    0.3851    0.0411    1.8781 H    0  0  0  0  0  0  0  0  0  0  0  0
   -0.4607    1.5583    2.2211 H    0  0  0  0  0  0  0  0  0  0  0  0
    0.3722    1.3375    0.6743 H    0  0  0  0  0  0  0  0  0  0  0  0
   42.8441    1.5100    2.8265 H    0  0  0  0  0  0  0  0  0  0  0  0
   42.8316    2.8065    1.6228 H    0  0  0  0  0  0  0  0  0  0  0  0
   43.6770    1.2891    1.2798 H    0  0  0  0  0  0  0  0  0  0  0  0
  1  2  1  0  0  0  0
  1  4  1  0  0  0  0
  1 35  1  0  0  0  0
  1 36  1  0  0  0  0
  2  3  1  0  0  0  0
  2 37  1  0  0  0  0
  2 38  1  0  0  0  0
  3  5  1  0  0  0  0
  3 39  1  0  0  0  0
  3 40  1  0  0  0  0
  4  6  1  0  0  0  0
  4 41  1  0  0  0  0
  4 42  1  0  0  0  0
  5  7  1  0  0  0  0
  5 43  1  0  0  0  0
  5 44  1  0  0  0  0
  6  8  1  0  0  0  0
  6 45  1  0  0  0  0
  6 46  1  0  0  0  0
  7  9  1  0  0  0  0
  7 47  1  0  0  0  0
  7 48  1  0  0  0  0
  8 10  1  0  0  0  0
  8 49  1  0  0  0  0
  8 50  1  0  0  0  0
  9 11  1  0  0  0  0
  9 51  1  0  0  0  0
  9 52  1  0  0  0  0
 10 12  1  0  0  0  0
 10 53  1  0  0  0  0
 10 54  1  0  0  0  0
 11 13  1  0  0  0  0
 11 55  1  0  0  0  0
 11 56  1  0  0  0  0
 12 14  1  0  0  0  0
 12 57  1  0  0  0  0
 12 58  1  0  0  0  0
 13 15  1  0  0  0  0
 13 59  1  0  0  0  0
 13 60  1  0  0  0  0
 14 16  1  0  0  0  0
 14 61  1  0  0  0  0
 14 62  1  0  0  0  0
 15 17  1  0  0  0  0
 15 63  1  0  0  0  0
 15 64  1  0  0  0  0
 16 18  1  0  0  0  0
 16 65  1  0  0  0  0
 16 66  1  0  0  0  0
 17 19  1  0  0  0  0
 17 67  1  0  0  0  0
 17 68  1  0  0  0  0
 18 20  1  0  0  0  0
 18 69  1  0  0  0  0
 18 70  1  0  0  0  0
 19 21  1  0  0  0  0
 19 71  1  0  0  0  0
 19 72  1  0  0  0  0
 20 22  1  0  0  0  0
 20 73  1  0  0  0  0
 20 74  1  0  0  0  0
 21 23  1  0  0  0  0
 21 75  1  0  0  0  0
 21 76  1  0  0  0  0
 22 24  1  0  0  0  0
 22 77  1  0  0  0  0
 22 78  1  0  0  0  0
 23 25  1  0  0  0  0
 23 79  1  0  0  0  0
 23 80  1  0  0  0  0
 24 26  1  0  0  0  0
 24 81  1  0  0  0  0
 24 82  1  0  0  0  0
 25 27  1  0  0  0  0
 25 83  1  0  0  0  0
 25 84  1  0  0  0  0
 26 28  1  0  0  0  0
 26 85  1  0  0  0  0
 26 86  1  0  0  0  0
 27 29  1  0  0  0  0
 27 87  1  0  0  0  0
 27 88  1  0  0  0  0
 28 30  1  0  0  0  0
 28 89  1  0  0  0  0
 28 90  1  0  0  0  0
 29 31  1  0  0  0  0
 29 91  1  0  0  0  0
 29 92  1  0  0  0  0
 30 32  1  0  0  0  0
 30 93  1  0  0  0  0
 30 94  1  0  0  0  0
 31 33  1  0  0  0  0
 31 95  1  0  0  0  0
 31 96  1  0  0  0  0
 32 34  1  0  0  0  0
 32 97  1  0  0  0  0
 32 98  1  0  0  0  0
 33 99  1  0  0  0  0
 33100  1  0  0  0  0
 33101  1  0  0  0  0
 34102  1  0  0  0  0
 34103  1  0  0  0  0
 34104  1  0  0  0  0
M  END
