
 OpenBabel09301909343D

 30 29  0  0  0  0  0  0  0  0999 V2000
    2.2166    1.2222   -0.4381 C   0  0  1  0  0  0  0  0  0  0  0  0
    3.4972    2.1040   -0.6035 C   0  0  1  0  0  0  0  0  0  0  0  0
    2.3261    0.3582    0.7951 C   0  0  0  0  0  0  0  0  0  0  0  0
    0.9984    2.0319   -0.4135 N   0  0  0  0  0  0  0  0  0  0  0  0
    3.8809    2.9958    0.6282 C   0  0  1  0  0  0  0  0  0  0  0  0
    4.5700    1.2699   -0.9659 O   0  0  0  0  0  0  0  0  0  0  0  0
    5.0515    3.9842    0.3757 C   0  0  1  0  0  0  0  0  0  0  0  0
    2.7679    3.7519    1.0312 O   0  0  0  0  0  0  0  0  0  0  0  0
    6.4062    3.3207    0.0754 C   0  0  0  0  0  0  0  0  0  0  0  0
    4.7088    4.8651   -0.6648 O   0  0  0  0  0  0  0  0  0  0  0  0
    7.4151    4.2911   -0.0089 O   0  0  0  0  0  0  0  0  0  0  0  0
    2.3833   -0.8572    0.6938 O   0  0  0  0  0  0  0  0  0  0  0  0
   -0.2659    1.5118   -0.4211 C   0  0  0  0  0  0  0  0  0  0  0  0
   -1.2209    2.2744   -0.4393 O   0  0  0  0  0  0  0  0  0  0  0  0
   -0.5332    0.0295   -0.4357 C   0  0  0  0  0  0  0  0  0  0  0  0
    2.1648    0.5766   -1.3441 H   0  0  0  0  0  0  0  0  0  0  0  0
    3.3047    2.7734   -1.4703 H   0  0  0  0  0  0  0  0  0  0  0  0
    2.3618    0.8135    1.7790 H   0  0  0  0  0  0  0  0  0  0  0  0
    1.0827    3.0577   -0.4523 H   0  0  0  0  0  0  0  0  0  0  0  0
    4.1749    2.3130    1.4603 H   0  0  0  0  0  0  0  0  0  0  0  0
    4.8006    0.7066   -0.1818 H   0  0  0  0  0  0  0  0  0  0  0  0
    5.1721    4.5510    1.3308 H   0  0  0  0  0  0  0  0  0  0  0  0
    2.8398    3.8882    2.0123 H   0  0  0  0  0  0  0  0  0  0  0  0
    6.3829    2.7868   -0.8934 H   0  0  0  0  0  0  0  0  0  0  0  0
    6.6615    2.5767    0.8645 H   0  0  0  0  0  0  0  0  0  0  0  0
    5.1282    5.7411   -0.4589 H   0  0  0  0  0  0  0  0  0  0  0  0
    7.6549    4.5364    0.9229 H   0  0  0  0  0  0  0  0  0  0  0  0
   -0.0595   -0.4360   -1.3247 H   0  0  0  0  0  0  0  0  0  0  0  0
   -1.6262   -0.1644   -0.4842 H   0  0  0  0  0  0  0  0  0  0  0  0
   -0.1584   -0.4470    0.4902 H   0  0  0  0  0  0  0  0  0  0  0  0
  1  2  1  0  0  0  0
  1  3  1  0  0  0  0
  1  4  1  0  0  0  0
  1 16  1  6  0  0  0
  2  5  1  0  0  0  0
  2  6  1  0  0  0  0
  2 17  1  6  0  0  0
  3 12  2  0  0  0  0
  3 18  1  0  0  0  0
  4 13  1  0  0  0  0
  4 19  1  0  0  0  0
  5  7  1  0  0  0  0
  5  8  1  0  0  0  0
  5 20  1  1  0  0  0
  6 21  1  0  0  0  0
  7  9  1  0  0  0  0
  7 10  1  0  0  0  0
  7 22  1  1  0  0  0
  8 23  1  0  0  0  0
  9 11  1  0  0  0  0
  9 24  1  0  0  0  0
  9 25  1  0  0  0  0
 10 26  1  0  0  0  0
 11 27  1  0  0  0  0
 13 14  2  0  0  0  0
 13 15  1  0  0  0  0
 15 28  1  0  0  0  0
 15 29  1  0  0  0  0
 15 30  1  0  0  0  0
M  END
