  NEOPENTANOIC ACID.mol	75-98-9
  NIST    06201314153D 1   1.00000  -347.02359
Copyright by the U.S. Sec. Commerce on behalf of U.S.A. All rights reserved.
 17 16  0  0  0  0  0  0  0  0999 V2000
   -0.0352    0.2922    0.0145 C    0  0  0  0  0  0  0  0  0  0  0  0
    1.3283    0.9996   -0.0067 C    0  0  0  0  0  0  0  0  0  0  0  0
    1.1363    2.5329   -0.0312 C    0  0  0  0  0  0  0  0  0  0  0  0
    2.1599    0.5981    1.2326 C    0  0  0  0  0  0  0  0  0  0  0  0
    2.0839    0.5757   -1.2671 C    0  0  0  0  0  0  0  0  0  0  0  0
    3.3065    1.1662   -1.3591 O    0  0  0  0  0  0  0  0  0  0  0  0
    1.6860   -0.1924   -2.1157 O    0  0  0  0  0  0  0  0  0  0  0  0
    0.0830   -0.7956    0.0201 H    0  0  0  0  0  0  0  0  0  0  0  0
   -0.6311    0.5545   -0.8648 H    0  0  0  0  0  0  0  0  0  0  0  0
   -0.5921    0.5856    0.9116 H    0  0  0  0  0  0  0  0  0  0  0  0
    2.0970    3.0553   -0.0468 H    0  0  0  0  0  0  0  0  0  0  0  0
    0.5601    2.8468   -0.9093 H    0  0  0  0  0  0  0  0  0  0  0  0
    0.5855    2.8490    0.8622 H    0  0  0  0  0  0  0  0  0  0  0  0
    3.1375    1.0882    1.2329 H    0  0  0  0  0  0  0  0  0  0  0  0
    2.3182   -0.4859    1.2694 H    0  0  0  0  0  0  0  0  0  0  0  0
    1.6264    0.8907    2.1444 H    0  0  0  0  0  0  0  0  0  0  0  0
    3.6983    0.8319   -2.1877 H    0  0  0  0  0  0  0  0  0  0  0  0
  1  2  1  0
  2  3  1  0
  2  4  1  0
  2  5  1  0
  5  6  1  0
  5  7  2  0
  1  8  1  0
  1  9  1  0
  1 10  1  0
  3 11  1  0
  3 12  1  0
  3 13  1  0
  4 14  1  0
  4 15  1  0
  4 16  1  0
  6 17  1  0
M  END
