  NITROGEN PENTOXIDE.mol	10102-03-1
  NIST    07091512473D 1   1.00000  -485.32471
Copyright by the U.S. Sec. Commerce on behalf of U.S.A. All rights reserved.
  7  6  0  0  0  0  0  0  0  0999 V2000
    1.7321    1.5999    0.0000 O    0  0  0  0  0  0  0  0  0  0  0  0
    0.4686    0.7852   -0.0647 N    0  0  0  0  0  0  0  0  0  0  0  0
   -0.4385    1.3990    0.4154 O    0  0  0  0  0  0  0  0  0  0  0  0
    2.9955    0.7851    0.0647 N    0  0  0  0  0  0  0  0  0  0  0  0
    3.9027    1.3989   -0.4153 O    0  0  0  0  0  0  0  0  0  0  0  0
    0.5404   -0.2738   -0.6165 O    0  0  0  0  0  0  0  0  0  0  0  0
    2.9236   -0.2739    0.6165 O    0  0  0  0  0  0  0  0  0  0  0  0
  1  2  1  0  0  0  0
  2  6  2  0  0  0  0
  3  2  2  0  0  0  0
  4  1  1  0  0  0  0
  4  5  2  0  0  0  0
  7  4  2  0  0  0  0
M  END
