  NITRIC ACID.mol	7697-37-2
  NIST    06301516353D 1   1.00000  -280.87856
Copyright by the U.S. Sec. Commerce on behalf of U.S.A. All rights reserved.
  5  4  0  0  0  0  0  0  0  0999 V2000
    1.7933    1.0020    0.2911 N    0  0  0  0  0  0  0  0  0  0  0  0
    2.4488    0.0064    0.4504 O    0  0  0  0  0  0  0  0  0  0  0  0
    2.1294    2.1711    0.2571 O    0  0  0  0  0  0  0  0  0  0  0  0
    0.4148    0.7567    0.1173 O    0  0  0  0  0  0  0  0  0  0  0  0
    0.0500    1.6578    0.0048 H    0  0  0  0  0  0  0  0  0  0  0  0
  1  2  2  0  0  0  0
  1  3  2  0  0  0  0
  1  4  1  0  0  0  0
  4  5  1  0  0  0  0
M  END
