  NITROUS ACID.mol	7782-77-6
  NIST    07081513493D 1   1.00000  -205.69522
Copyright by the U.S. Sec. Commerce on behalf of U.S.A. All rights reserved.
  4  3  0  0  0  0  0  0  0  0999 V2000
    0.9377    0.1193    0.0364 N    0  0  0  0  0  0  0  0  0  0  0  0
    0.3555   -0.4950   -1.1126 O    0  0  0  0  0  0  0  0  0  0  0  0
    2.1142    0.0857   -0.0265 O    0  0  0  0  0  0  0  0  0  0  0  0
   -0.5999   -0.4012   -0.9370 H    0  0  0  0  0  0  0  0  0  0  0  0
  1  3  2  0  0  0  0
  1  2  1  0  0  0  0
  2  4  1  0  0  0  0
M  END
