  O-CHLOROTOLUENE.mol	95-49-8
  NIST    06201314153D 1   1.00000  -731.16335
Copyright by the U.S. Sec. Commerce on behalf of U.S.A. All rights reserved.
 15 15  0  0  0  0  0  0  0  0999 V2000
    7.2476    3.0353   -0.9742 C    0  0  0  0  0  0  0  0  0  0  0  0
    6.3396    1.8709   -0.6688 C    0  0  0  0  0  0  0  0  0  0  0  0
    6.8326    0.5799   -0.4253 C    0  0  0  0  0  0  0  0  0  0  0  0
    4.9484    2.0343   -0.6152 C    0  0  0  0  0  0  0  0  0  0  0  0
    8.5730    0.2875   -0.4742 Cl   0  0  0  0  0  0  0  0  0  0  0  0
    5.9947   -0.4974   -0.1429 C    0  0  0  0  0  0  0  0  0  0  0  0
    4.0906    0.9712   -0.3346 C    0  0  0  0  0  0  0  0  0  0  0  0
    4.6151   -0.2990   -0.0976 C    0  0  0  0  0  0  0  0  0  0  0  0
    7.9550    3.2162   -0.1566 H    0  0  0  0  0  0  0  0  0  0  0  0
    7.8458    2.8506   -1.8740 H    0  0  0  0  0  0  0  0  0  0  0  0
    6.6654    3.9479   -1.1314 H    0  0  0  0  0  0  0  0  0  0  0  0
    4.5368    3.0238   -0.7992 H    0  0  0  0  0  0  0  0  0  0  0  0
    6.4241   -1.4772    0.0383 H    0  0  0  0  0  0  0  0  0  0  0  0
    3.0175    1.1366   -0.3017 H    0  0  0  0  0  0  0  0  0  0  0  0
    3.9592   -1.1366    0.1223 H    0  0  0  0  0  0  0  0  0  0  0  0
  1  2  1  0
  3  5  1  0
  2  3  1  0
  3  6  2  0
  6  8  1  0
  8  7  2  0
  7  4  1  0
  2  4  2  0
  1  9  1  0
  1 10  1  0
  1 11  1  0
  4 12  1  0
  6 13  1  0
  7 14  1  0
  8 15  1  0
M  END
