  O-CYMENE.mol	527-84-4
  NIST    06301520083D 1   1.00000  -389.50795
Copyright by the U.S. Sec. Commerce on behalf of U.S.A. All rights reserved.
 24 24  0  0  0  0  0  0  0  0999 V2000
    1.0397    2.6347    3.4913 C    0  0  0  0  0  0  0  0  0  0  0  0
    1.7279    2.0876    2.2257 C    0  0  0  0  0  0  0  0  0  0  0  0
    1.0934    0.7538    1.7846 C    0  0  0  0  0  0  0  0  0  0  0  0
    3.2387    1.9604    2.4091 C    0  0  0  0  0  0  0  0  0  0  0  0
    4.1540    2.6807    1.6102 C    0  0  0  0  0  0  0  0  0  0  0  0
    3.7412    1.1009    3.3966 C    0  0  0  0  0  0  0  0  0  0  0  0
    3.7026    3.6308    0.5197 C    0  0  0  0  0  0  0  0  0  0  0  0
    5.5279    2.5116    1.8330 C    0  0  0  0  0  0  0  0  0  0  0  0
    5.1097    0.9423    3.6079 C    0  0  0  0  0  0  0  0  0  0  0  0
    6.0119    1.6540    2.8191 C    0  0  0  0  0  0  0  0  0  0  0  0
    1.1524    1.9482    4.3386 H    0  0  0  0  0  0  0  0  0  0  0  0
    1.4643    3.6002    3.7878 H    0  0  0  0  0  0  0  0  0  0  0  0
   -0.0342    2.7732    3.3170 H    0  0  0  0  0  0  0  0  0  0  0  0
    1.5405    2.8098    1.4244 H    0  0  0  0  0  0  0  0  0  0  0  0
    1.5539    0.3805    0.8632 H    0  0  0  0  0  0  0  0  0  0  0  0
    1.2135   -0.0197    2.5522 H    0  0  0  0  0  0  0  0  0  0  0  0
    0.0189    0.8784    1.6031 H    0  0  0  0  0  0  0  0  0  0  0  0
    3.0453    0.5403    4.0163 H    0  0  0  0  0  0  0  0  0  0  0  0
    4.5666    4.0817    0.0218 H    0  0  0  0  0  0  0  0  0  0  0  0
    3.1081    3.1245   -0.2510 H    0  0  0  0  0  0  0  0  0  0  0  0
    3.0870    4.4496    0.9125 H    0  0  0  0  0  0  0  0  0  0  0  0
    6.2307    3.0678    1.2163 H    0  0  0  0  0  0  0  0  0  0  0  0
    5.4659    0.2679    4.3823 H    0  0  0  0  0  0  0  0  0  0  0  0
    7.0829    1.5441    2.9681 H    0  0  0  0  0  0  0  0  0  0  0  0
  1  2  1  0  0  0  0
  1 11  1  0  0  0  0
  1 12  1  0  0  0  0
  1 13  1  0  0  0  0
  2  3  1  0  0  0  0
  2  4  1  0  0  0  0
  2 14  1  0  0  0  0
  3 15  1  0  0  0  0
  3 16  1  0  0  0  0
  3 17  1  0  0  0  0
  4  5  2  0  0  0  0
  5  7  1  0  0  0  0
  5  8  1  0  0  0  0
  6  4  1  0  0  0  0
  6 18  1  0  0  0  0
  7 19  1  0  0  0  0
  7 20  1  0  0  0  0
  7 21  1  0  0  0  0
  8 10  2  0  0  0  0
  8 22  1  0  0  0  0
  9  6  2  0  0  0  0
  9 23  1  0  0  0  0
 10  9  1  0  0  0  0
 10 24  1  0  0  0  0
M  END
