  O-DINITROBENZENE.mol	528-29-0
  NIST    06201314163D 1   1.00000  -641.22949
Copyright by the U.S. Sec. Commerce on behalf of U.S.A. All rights reserved.
 16 16  0  0  0  0  0  0  0  0999 V2000
    6.2971    1.8951   -0.6477 C    0  0  0  0  0  0  0  0  0  0  0  0
    6.8250    0.6446   -0.3445 C    0  0  0  0  0  0  0  0  0  0  0  0
    4.9132    2.0684   -0.6934 C    0  0  0  0  0  0  0  0  0  0  0  0
    4.0638    0.9912   -0.4408 C    0  0  0  0  0  0  0  0  0  0  0  0
    4.5941   -0.2606   -0.1262 C    0  0  0  0  0  0  0  0  0  0  0  0
    5.9734   -0.4300   -0.0705 C    0  0  0  0  0  0  0  0  0  0  0  0
    6.4746   -1.7370    0.3943 N    0  0  0  0  0  0  0  0  0  0  0  0
    8.2884    0.4885   -0.4405 N    0  0  0  0  0  0  0  0  0  0  0  0
    8.7060   -0.5363   -0.9671 O    0  0  0  0  0  0  0  0  0  0  0  0
    8.9717    1.4256   -0.0377 O    0  0  0  0  0  0  0  0  0  0  0  0
    5.8699   -2.7314    0.0036 O    0  0  0  0  0  0  0  0  0  0  0  0
    7.4163   -1.7256    1.1786 O    0  0  0  0  0  0  0  0  0  0  0  0
    6.9794    2.7109   -0.8569 H    0  0  0  0  0  0  0  0  0  0  0  0
    4.5037    3.0440   -0.9356 H    0  0  0  0  0  0  0  0  0  0  0  0
    2.9869    1.1221   -0.4783 H    0  0  0  0  0  0  0  0  0  0  0  0
    3.9564   -1.1097    0.0911 H    0  0  0  0  0  0  0  0  0  0  0  0
  2  8  1  0
  6  7  1  0
  7 11  2  0
  7 12  2  0
  8  9  2  0
  8 10  2  0
  1  2  1  0
  2  6  2  0
  6  5  1  0
  5  4  2  0
  4  3  1  0
  1  3  2  0
  1 13  1  0
  3 14  1  0
  4 15  1  0
  5 16  1  0
M  END
