
 OpenBabel11281917223D

 21 21  0  0  0  0  0  0  0  0999 V2000
    1.0101    3.2142    1.6553 C   0  0  0  0  0  0  0  0  0  0  0  0
    2.0229    2.1838    1.1549 C   0  0  0  0  0  0  0  0  0  0  0  0
    3.4474    2.7075    1.2534 C   0  0  0  0  0  0  0  0  0  0  0  0
    4.4558    2.1321    2.0897 C   0  0  0  0  0  0  0  0  0  0  0  0
    3.7846    3.8207    0.4557 C   0  0  0  0  0  0  0  0  0  0  0  0
    4.2397    0.9441    2.9991 C   0  0  0  0  0  0  0  0  0  0  0  0
    5.7451    2.6960    2.0904 C   0  0  0  0  0  0  0  0  0  0  0  0
    5.0705    4.3582    0.4778 C   0  0  0  0  0  0  0  0  0  0  0  0
    6.0476    3.7979    1.2928 C   0  0  0  0  0  0  0  0  0  0  0  0
   -0.0172    2.8048    1.5537 H   0  0  0  0  0  0  0  0  0  0  0  0
    1.1975    3.4419    2.7264 H   0  0  0  0  0  0  0  0  0  0  0  0
    1.0656    4.1551    1.0697 H   0  0  0  0  0  0  0  0  0  0  0  0
    1.8408    1.2610    1.7235 H   0  0  0  0  0  0  0  0  0  0  0  0
    1.8075    1.9382    0.0925 H   0  0  0  0  0  0  0  0  0  0  0  0
    3.0447    4.2716   -0.1937 H   0  0  0  0  0  0  0  0  0  0  0  0
    4.9363    0.1304    2.7057 H   0  0  0  0  0  0  0  0  0  0  0  0
    4.4690    1.2432    4.0438 H   0  0  0  0  0  0  0  0  0  0  0  0
    3.2289    0.5128    3.0135 H   0  0  0  0  0  0  0  0  0  0  0  0
    6.5214    2.2750    2.7185 H   0  0  0  0  0  0  0  0  0  0  0  0
    5.3096    5.2125   -0.1425 H   0  0  0  0  0  0  0  0  0  0  0  0
    7.0452    4.2178    1.3069 H   0  0  0  0  0  0  0  0  0  0  0  0
  1  2  1  0  0  0  0
  1 10  1  0  0  0  0
  1 11  1  0  0  0  0
  1 12  1  0  0  0  0
  2  3  1  0  0  0  0
  2 13  1  0  0  0  0
  2 14  1  0  0  0  0
  3  5  1  0  0  0  0
  4  3  2  0  0  0  0
  4  6  1  0  0  0  0
  5  8  2  0  0  0  0
  5 15  1  0  0  0  0
  6 16  1  0  0  0  0
  6 17  1  0  0  0  0
  6 18  1  0  0  0  0
  7  4  1  0  0  0  0
  7 19  1  0  0  0  0
  8  9  1  0  0  0  0
  8 20  1  0  0  0  0
  9  7  2  0  0  0  0
  9 21  1  0  0  0  0
M  END
