  O-ETHYLPHENOL.mol	90-00-6
  NIST    06201314153D 1   1.00000  -386.09660
Copyright by the U.S. Sec. Commerce on behalf of U.S.A. All rights reserved.
 19 19  0  0  0  0  0  0  0  0999 V2000
    7.0459    4.1400   -0.6080 C    0  0  0  0  0  0  0  0  0  0  0  0
    6.8828    2.9906   -1.6192 C    0  0  0  0  0  0  0  0  0  0  0  0
    6.0867    1.8241   -1.0763 C    0  0  0  0  0  0  0  0  0  0  0  0
    6.6730    0.9056   -0.1857 C    0  0  0  0  0  0  0  0  0  0  0  0
    4.7466    1.6243   -1.4193 C    0  0  0  0  0  0  0  0  0  0  0  0
    7.9909    1.1095    0.1437 O    0  0  0  0  0  0  0  0  0  0  0  0
    5.9406   -0.1650    0.3326 C    0  0  0  0  0  0  0  0  0  0  0  0
    4.0001    0.5602   -0.9067 C    0  0  0  0  0  0  0  0  0  0  0  0
    4.6032   -0.3367   -0.0272 C    0  0  0  0  0  0  0  0  0  0  0  0
    7.6223    4.9632   -1.0464 H    0  0  0  0  0  0  0  0  0  0  0  0
    6.0706    4.5339   -0.3005 H    0  0  0  0  0  0  0  0  0  0  0  0
    7.5718    3.7960    0.2879 H    0  0  0  0  0  0  0  0  0  0  0  0
    7.8771    2.6439   -1.9251 H    0  0  0  0  0  0  0  0  0  0  0  0
    6.3859    3.3677   -2.5215 H    0  0  0  0  0  0  0  0  0  0  0  0
    4.2804    2.3229   -2.1111 H    0  0  0  0  0  0  0  0  0  0  0  0
    8.2748    0.4023    0.7434 H    0  0  0  0  0  0  0  0  0  0  0  0
    6.4194   -0.8633    1.0179 H    0  0  0  0  0  0  0  0  0  0  0  0
    2.9607    0.4335   -1.1954 H    0  0  0  0  0  0  0  0  0  0  0  0
    4.0410   -1.1723    0.3810 H    0  0  0  0  0  0  0  0  0  0  0  0
  1  2  1  0
  2  3  1  0
  4  6  1  0
  3  4  1  0
  4  7  2  0
  7  9  1  0
  9  8  2  0
  8  5  1  0
  3  5  2  0
  1 10  1  0
  1 11  1  0
  1 12  1  0
  2 13  1  0
  2 14  1  0
  5 15  1  0
  6 16  1  0
  7 17  1  0
  8 18  1  0
  9 19  1  0
M  END
