  O-FLUOROPHENETOLE.mol	451-80-9
  NIST    08031215113D 1   1.00000  -485.31884
Copyright by the U.S. Sec. Commerce on behalf of U.S.A. All rights reserved.
 19 19  0  0  0  0  0  0  0  0999 V2000
    6.4052    4.2051   -1.2992 C    0  0  0  0  0  0  0  0  0  0  0  0
    6.9858    2.9444   -0.9655 O    0  0  0  0  0  0  0  0  0  0  0  0
    6.1536    1.9049   -0.6870 C    0  0  0  0  0  0  0  0  0  0  0  0
    7.5433    5.1786   -1.5502 C    0  0  0  0  0  0  0  0  0  0  0  0
    6.7766    0.6873   -0.3602 C    0  0  0  0  0  0  0  0  0  0  0  0
    4.7557    1.9453   -0.6982 C    0  0  0  0  0  0  0  0  0  0  0  0
    8.1242    0.6442   -0.3484 F    0  0  0  0  0  0  0  0  0  0  0  0
    6.0497   -0.4491   -0.0548 C    0  0  0  0  0  0  0  0  0  0  0  0
    4.0135    0.7986   -0.3899 C    0  0  0  0  0  0  0  0  0  0  0  0
    4.6510   -0.3959   -0.0688 C    0  0  0  0  0  0  0  0  0  0  0  0
    5.7732    4.0987   -2.1926 H    0  0  0  0  0  0  0  0  0  0  0  0
    5.7667    4.5508   -0.4734 H    0  0  0  0  0  0  0  0  0  0  0  0
    7.1436    6.1647   -1.8101 H    0  0  0  0  0  0  0  0  0  0  0  0
    8.1673    5.2794   -0.6570 H    0  0  0  0  0  0  0  0  0  0  0  0
    8.1741    4.8300   -2.3737 H    0  0  0  0  0  0  0  0  0  0  0  0
    4.2398    2.8658   -0.9460 H    0  0  0  0  0  0  0  0  0  0  0  0
    6.5870   -1.3599    0.1898 H    0  0  0  0  0  0  0  0  0  0  0  0
    2.9286    0.8523   -0.4044 H    0  0  0  0  0  0  0  0  0  0  0  0
    4.0741   -1.2841    0.1700 H    0  0  0  0  0  0  0  0  0  0  0  0
  1  2  1  0
  1  4  1  0
  2  3  1  0
  5  7  1  0
  3  5  1  0
  5  8  2  0
  8 10  1  0
 10  9  2  0
  9  6  1  0
  3  6  2  0
  1 11  1  0
  1 12  1  0
  4 13  1  0
  4 14  1  0
  4 15  1  0
  6 16  1  0
  8 17  1  0
  9 18  1  0
 10 19  1  0
M  END
