  O-FLUOROPHENOL.mol	367-12-4
  NIST    08031215083D 1   1.00000  -406.69266
Copyright by the U.S. Sec. Commerce on behalf of U.S.A. All rights reserved.
 13 13  0  0  0  0  0  0  0  0999 V2000
    7.1500    2.8489   -0.9327 F    0  0  0  0  0  0  0  0  0  0  0  0
    6.3116    1.8292   -0.6624 C    0  0  0  0  0  0  0  0  0  0  0  0
    6.8625    0.5836   -0.3297 C    0  0  0  0  0  0  0  0  0  0  0  0
    4.9416    2.0247   -0.7168 C    0  0  0  0  0  0  0  0  0  0  0  0
    8.2236    0.4848   -0.3016 O    0  0  0  0  0  0  0  0  0  0  0  0
    5.9932   -0.4724   -0.0497 C    0  0  0  0  0  0  0  0  0  0  0  0
    4.0796    0.9597   -0.4345 C    0  0  0  0  0  0  0  0  0  0  0  0
    4.6087   -0.2857   -0.1017 C    0  0  0  0  0  0  0  0  0  0  0  0
    4.5678    3.0092   -0.9799 H    0  0  0  0  0  0  0  0  0  0  0  0
    8.4619   -0.4233   -0.0596 H    0  0  0  0  0  0  0  0  0  0  0  0
    6.4067   -1.4455    0.2102 H    0  0  0  0  0  0  0  0  0  0  0  0
    3.0054    1.1099   -0.4762 H    0  0  0  0  0  0  0  0  0  0  0  0
    3.9502   -1.1205    0.1198 H    0  0  0  0  0  0  0  0  0  0  0  0
  1  2  1  0
  3  5  1  0
  2  3  1  0
  3  6  2  0
  6  8  1  0
  8  7  2  0
  7  4  1  0
  2  4  2  0
  4  9  1  0
  5 10  1  0
  6 11  1  0
  7 12  1  0
  8 13  1  0
M  END
