  O-NITROANILINE.mol	88-74-4
  NIST    07011317263D 1   1.00000  -492.10951
Copyright by the U.S. Sec. Commerce on behalf of U.S.A. All rights reserved.
 16 16  0  0  0  0  0  0  0  0999 V2000
    6.3020    1.8308   -0.6654 C    0  0  0  0  0  0  0  0  0  0  0  0
    6.8813    0.5608   -0.3833 C    0  0  0  0  0  0  0  0  0  0  0  0
    4.9078    2.0085   -0.6775 C    0  0  0  0  0  0  0  0  0  0  0  0
    7.1145    2.9926   -0.9641 N    0  0  0  0  0  0  0  0  0  0  0  0
    5.9764   -0.5014   -0.1259 C    0  0  0  0  0  0  0  0  0  0  0  0
    8.2186    0.3284   -0.3263 N    0  0  0  0  0  0  0  0  0  0  0  0
    4.0570    0.9519   -0.4189 C    0  0  0  0  0  0  0  0  0  0  0  0
    4.6087   -0.3119   -0.1431 C    0  0  0  0  0  0  0  0  0  0  0  0
    6.5510    4.0647   -1.1897 O    0  0  0  0  0  0  0  0  0  0  0  0
    8.3548    2.8718   -0.9862 O    0  0  0  0  0  0  0  0  0  0  0  0
    8.5499   -0.6209   -0.2530 H    0  0  0  0  0  0  0  0  0  0  0  0
    8.8467    1.0674   -0.6102 H    0  0  0  0  0  0  0  0  0  0  0  0
    4.5312    2.9991   -0.8986 H    0  0  0  0  0  0  0  0  0  0  0  0
    6.3904   -1.4826    0.0930 H    0  0  0  0  0  0  0  0  0  0  0  0
    2.9821    1.0975   -0.4305 H    0  0  0  0  0  0  0  0  0  0  0  0
    3.9553   -1.1561    0.0607 H    0  0  0  0  0  0  0  0  0  0  0  0
  1  4  1  0
  2  6  1  0
  4  9  2  0
  4 10  2  0
  6 11  1  0
  6 12  1  0
  1  2  1  0
  2  5  2  0
  5  8  1  0
  8  7  2  0
  7  3  1  0
  1  3  2  0
  3 13  1  0
  5 14  1  0
  7 15  1  0
  8 16  1  0
M  END
