  O-NITROPHENOL.mol	88-75-5
  NIST    06191409303D 1   1.00000  -511.97606
Copyright by the U.S. Sec. Commerce on behalf of U.S.A. All rights reserved.
 15 15  0  0  0  0  0  0  0  0999 V2000
    6.3100    1.8217   -0.6605 C    0  0  0  0  0  0  0  0  0  0  0  0
    6.8457    0.5674   -0.3258 C    0  0  0  0  0  0  0  0  0  0  0  0
    4.9085    2.0295   -0.7182 C    0  0  0  0  0  0  0  0  0  0  0  0
    7.2320    2.8997   -0.9460 N    0  0  0  0  0  0  0  0  0  0  0  0
    6.0026   -0.4915   -0.0450 C    0  0  0  0  0  0  0  0  0  0  0  0
    4.0733    0.9354   -0.4276 C    0  0  0  0  0  0  0  0  0  0  0  0
    4.3283    3.1933   -1.0297 O    0  0  0  0  0  0  0  0  0  0  0  0
    4.6108   -0.2978   -0.0983 C    0  0  0  0  0  0  0  0  0  0  0  0
    6.7598    4.0213   -1.2459 O    0  0  0  0  0  0  0  0  0  0  0  0
    8.4380    2.6887   -0.8872 O    0  0  0  0  0  0  0  0  0  0  0  0
    7.9233    0.4628   -0.2967 H    0  0  0  0  0  0  0  0  0  0  0  0
    6.4142   -1.4614    0.2137 H    0  0  0  0  0  0  0  0  0  0  0  0
    3.0016    1.0978   -0.4721 H    0  0  0  0  0  0  0  0  0  0  0  0
    5.0591    3.8369   -1.2011 H    0  0  0  0  0  0  0  0  0  0  0  0
    3.9426   -1.1258    0.1215 H    0  0  0  0  0  0  0  0  0  0  0  0
  1  4  1  0
  3  7  1  0
  4  9  2  0
  4 10  2  0
  1  2  1  0
  2  5  2  0
  5  8  1  0
  8  6  2  0
  6  3  1  0
  1  3  2  0
  2 11  1  0
  5 12  1  0
  6 13  1  0
  7 14  1  0
  8 15  1  0
M  END
