  O-PHENETIDINE.mol	94-70-2
  NIST    06141408443D 1   1.00000  -441.44118
Copyright by the U.S. Sec. Commerce on behalf of U.S.A. All rights reserved.
 21 21  0  0  0  0  0  0  0  0999 V2000
    6.3682    1.8709   -0.6841 C    0  0  0  0  0  0  0  0  0  0  0  0
    6.8501    0.6308   -0.2624 C    0  0  0  0  0  0  0  0  0  0  0  0
    4.9967    2.0987   -0.7989 C    0  0  0  0  0  0  0  0  0  0  0  0
    4.0752    1.0896   -0.4840 C    0  0  0  0  0  0  0  0  0  0  0  0
    2.6924    1.2870   -0.5396 N    0  0  0  0  0  0  0  0  0  0  0  0
    4.5730   -0.1575   -0.0536 C    0  0  0  0  0  0  0  0  0  0  0  0
    3.6596   -1.1664    0.2143 O    0  0  0  0  0  0  0  0  0  0  0  0
    5.9416   -0.3835    0.0511 C    0  0  0  0  0  0  0  0  0  0  0  0
    3.2835   -1.2708    1.5990 C    0  0  0  0  0  0  0  0  0  0  0  0
    2.2694   -2.3936    1.7259 C    0  0  0  0  0  0  0  0  0  0  0  0
    7.0623    2.6688   -0.9347 H    0  0  0  0  0  0  0  0  0  0  0  0
    7.9181    0.4509   -0.1821 H    0  0  0  0  0  0  0  0  0  0  0  0
    4.6292    3.0672   -1.1317 H    0  0  0  0  0  0  0  0  0  0  0  0
    2.3969    1.9967   -1.1991 H    0  0  0  0  0  0  0  0  0  0  0  0
    2.1841    0.4187   -0.6653 H    0  0  0  0  0  0  0  0  0  0  0  0
    6.2814   -1.3663    0.3665 H    0  0  0  0  0  0  0  0  0  0  0  0
    4.1775   -1.4785    2.2035 H    0  0  0  0  0  0  0  0  0  0  0  0
    2.8631   -0.3144    1.9393 H    0  0  0  0  0  0  0  0  0  0  0  0
    1.9686   -2.5161    2.7723 H    0  0  0  0  0  0  0  0  0  0  0  0
    1.3742   -2.1785    1.1328 H    0  0  0  0  0  0  0  0  0  0  0  0
    2.6951   -3.3384    1.3728 H    0  0  0  0  0  0  0  0  0  0  0  0
  4  5  1  0
  6  7  1  0
  7  9  1  0
  9 10  1  0
  1  2  1  0
  2  8  2  0
  8  6  1  0
  6  4  2  0
  4  3  1  0
  1  3  2  0
  1 11  1  0
  2 12  1  0
  3 13  1  0
  5 14  1  0
  5 15  1  0
  8 16  1  0
  9 17  1  0
  9 18  1  0
 10 19  1  0
 10 20  1  0
 10 21  1  0
M  END
