
 OpenBabel10011915573D

 18 18  0  0  0  0  0  0  0  0999 V2000
   -1.0424    0.1677    0.0616 C   0  0  0  0  0  0  0  0  0  0  0  0
   -0.0268    1.1012   -0.1063 C   0  0  0  0  0  0  0  0  0  0  0  0
   -0.7474   -1.1830    0.0934 C   0  0  0  0  0  0  0  0  0  0  0  0
    0.5664   -1.6148   -0.0422 C   0  0  0  0  0  0  0  0  0  0  0  0
    1.6375   -0.7045   -0.2154 C   0  0  0  0  0  0  0  0  0  0  0  0
    1.3278    0.7133   -0.2491 C   0  0  0  0  0  0  0  0  0  0  0  0
    3.0035   -1.3310   -0.3466 C   0  0  0  0  0  0  0  0  0  0  0  0
    2.3094    1.8453   -0.4237 C   0  0  0  0  0  0  0  0  0  0  0  0
    1.8577    3.1203   -0.4307 O   0  0  0  0  0  0  0  0  0  0  0  0
    3.5024    1.6571   -0.5611 O   0  0  0  0  0  0  0  0  0  0  0  0
    4.0118   -0.6687   -0.4960 O   0  0  0  0  0  0  0  0  0  0  0  0
    3.1237   -2.6773   -0.2964 O   0  0  0  0  0  0  0  0  0  0  0  0
   -2.0679    0.4982    0.1678 H   0  0  0  0  0  0  0  0  0  0  0  0
   -0.3092    2.1460   -0.1247 H   0  0  0  0  0  0  0  0  0  0  0  0
   -1.5429   -1.9056    0.2245 H   0  0  0  0  0  0  0  0  0  0  0  0
    0.7454   -2.6818   -0.0103 H   0  0  0  0  0  0  0  0  0  0  0  0
    2.4621    3.8682   -0.5412 H   0  0  0  0  0  0  0  0  0  0  0  0
    3.9862   -3.1093   -0.3771 H   0  0  0  0  0  0  0  0  0  0  0  0
  1  2  2  0  0  0  0
  1 13  1  0  0  0  0
  2  6  1  0  0  0  0
  2 14  1  0  0  0  0
  3  1  1  0  0  0  0
  3 15  1  0  0  0  0
  4  3  2  0  0  0  0
  4 16  1  0  0  0  0
  5  4  1  0  0  0  0
  5  7  1  0  0  0  0
  6  5  2  0  0  0  0
  6  8  1  0  0  0  0
  7 11  2  0  0  0  0
  7 12  1  0  0  0  0
  8  9  1  0  0  0  0
  8 10  2  0  0  0  0
  9 17  1  0  0  0  0
 12 18  1  0  0  0  0
M  END
