  O-TOLUIDINE.mol	95-53-4
  NIST    06201314153D 1   1.00000  -326.91966
Copyright by the U.S. Sec. Commerce on behalf of U.S.A. All rights reserved.
 17 17  0  0  0  0  0  0  0  0999 V2000
    7.2295    3.0255   -1.0104 C    0  0  0  0  0  0  0  0  0  0  0  0
    6.3145    1.8637   -0.7103 C    0  0  0  0  0  0  0  0  0  0  0  0
    6.8515    0.6277   -0.2831 C    0  0  0  0  0  0  0  0  0  0  0  0
    4.9280    1.9812   -0.8355 C    0  0  0  0  0  0  0  0  0  0  0  0
    8.2341    0.4905   -0.0909 N    0  0  0  0  0  0  0  0  0  0  0  0
    5.9867   -0.4385    0.0073 C    0  0  0  0  0  0  0  0  0  0  0  0
    4.0672    0.9209   -0.5463 C    0  0  0  0  0  0  0  0  0  0  0  0
    4.6073   -0.2922   -0.1197 C    0  0  0  0  0  0  0  0  0  0  0  0
    7.9051    2.8164   -1.8542 H    0  0  0  0  0  0  0  0  0  0  0  0
    6.6563    3.9195   -1.2732 H    0  0  0  0  0  0  0  0  0  0  0  0
    7.8636    3.2723   -0.1483 H    0  0  0  0  0  0  0  0  0  0  0  0
    4.5166    2.9327   -1.1664 H    0  0  0  0  0  0  0  0  0  0  0  0
    8.5538   -0.4705   -0.0659 H    0  0  0  0  0  0  0  0  0  0  0  0
    8.8088    1.0449   -0.7137 H    0  0  0  0  0  0  0  0  0  0  0  0
    6.4063   -1.3866    0.3388 H    0  0  0  0  0  0  0  0  0  0  0  0
    2.9931    1.0430   -0.6508 H    0  0  0  0  0  0  0  0  0  0  0  0
    3.9570   -1.1321    0.1113 H    0  0  0  0  0  0  0  0  0  0  0  0
  1  2  1  0
  3  5  1  0
  2  3  1  0
  3  6  2  0
  6  8  1  0
  8  7  2  0
  7  4  1  0
  2  4  2  0
  1  9  1  0
  1 10  1  0
  1 11  1  0
  4 12  1  0
  5 13  1  0
  5 14  1  0
  6 15  1  0
  7 16  1  0
  8 17  1  0
M  END
