  OCTAFLUORO-2-BUTENE.mol	360-89-4
  NIST    08101209293D 1   1.00000  -951.09715
Copyright by the U.S. Sec. Commerce on behalf of U.S.A. All rights reserved.
 12 11  0  0  0  0  0  0  0  0999 V2000
    1.3106    1.6957    0.0065 C    0  0  0  0  0  0  0  0  0  0  0  0
    1.5117    3.0064    0.1982 F    0  0  0  0  0  0  0  0  0  0  0  0
    2.4932    1.1185   -0.2714 F    0  0  0  0  0  0  0  0  0  0  0  0
    0.8536    1.1619    1.1527 F    0  0  0  0  0  0  0  0  0  0  0  0
    0.3303    1.4237   -1.1049 C    0  0  0  0  0  0  0  0  0  0  0  0
    0.0857    0.1138   -1.2283 F    0  0  0  0  0  0  0  0  0  0  0  0
   -0.2752    2.2782   -1.9323 C    0  0  0  0  0  0  0  0  0  0  0  0
   -1.1114    1.7861   -2.8512 F    0  0  0  0  0  0  0  0  0  0  0  0
   -0.1479    3.7940   -1.9828 C    0  0  0  0  0  0  0  0  0  0  0  0
   -0.5790    4.3649   -0.8445 F    0  0  0  0  0  0  0  0  0  0  0  0
    1.1261    4.1742   -2.1824 F    0  0  0  0  0  0  0  0  0  0  0  0
   -0.8894    4.2628   -2.9942 F    0  0  0  0  0  0  0  0  0  0  0  0
  1  2  1  0
  1  3  1  0
  1  4  1  0
  1  5  1  0
  5  6  1  0
  5  7  2  0
  7  8  1  0
  7  9  1  0
  9 10  1  0
  9 11  1  0
  9 12  1  0
M  END
