  OZONE.mol	10028-15-6
  NIST    08101209253D 1   1.00000     0.00000
Copyright by the U.S. Sec. Commerce on behalf of U.S.A. All rights reserved.
  5  4  0  0  0  0  0  0  0  0999 V2000
    0.1520    0.3699    0.3929 O    0  0  0  0  0  0  0  0  0  0  0  0
    1.2368    1.2161    0.0000 O    0  0  0  0  0  0  0  0  0  0  0  0
    2.3215    0.3697   -0.3929 O    0  0  0  0  0  0  0  0  0  0  0  0
   -0.2174    0.1168   -0.4760 H    0  0  0  0  0  0  0  0  0  0  0  0
    2.6909    0.1165    0.4760 H    0  0  0  0  0  0  0  0  0  0  0  0
  1  2  1  0
  2  3  1  0
  1  4  1  0
  3  5  1  0
M  END
