  P-AMINOAZOBENZENE.mol	60-09-3
  NIST    06181304383D 1   1.00000  -628.11826
Copyright by the U.S. Sec. Commerce on behalf of U.S.A. All rights reserved.
 26 27  0  0  0  0  0  0  0  0999 V2000
    6.4566    3.9909   -0.6026 N    0  0  0  0  0  0  0  0  0  0  0  0
    7.0020    2.8573   -0.4736 N    0  0  0  0  0  0  0  0  0  0  0  0
    6.1140    1.7682   -0.4084 C    0  0  0  0  0  0  0  0  0  0  0  0
    7.3636    5.0787   -0.6675 C    0  0  0  0  0  0  0  0  0  0  0  0
    6.7012    0.5020   -0.2631 C    0  0  0  0  0  0  0  0  0  0  0  0
    4.7098    1.8599   -0.4755 C    0  0  0  0  0  0  0  0  0  0  0  0
    6.7779    6.3444   -0.8075 C    0  0  0  0  0  0  0  0  0  0  0  0
    8.7635    4.9639   -0.6021 C    0  0  0  0  0  0  0  0  0  0  0  0
    5.9230   -0.6439   -0.1839 C    0  0  0  0  0  0  0  0  0  0  0  0
    3.9289    0.7211   -0.3980 C    0  0  0  0  0  0  0  0  0  0  0  0
    7.5750    7.4855   -0.8814 C    0  0  0  0  0  0  0  0  0  0  0  0
    9.5530    6.1057   -0.6764 C    0  0  0  0  0  0  0  0  0  0  0  0
    4.5202   -0.5536   -0.2501 C    0  0  0  0  0  0  0  0  0  0  0  0
    8.9646    7.3692   -0.8159 C    0  0  0  0  0  0  0  0  0  0  0  0
    3.7314   -1.6952   -0.2253 N    0  0  0  0  0  0  0  0  0  0  0  0
    7.7843    0.4430   -0.2109 H    0  0  0  0  0  0  0  0  0  0  0  0
    4.2577    2.8394   -0.5863 H    0  0  0  0  0  0  0  0  0  0  0  0
    5.6947    6.4054   -0.8557 H    0  0  0  0  0  0  0  0  0  0  0  0
    9.2015    3.9779   -0.4943 H    0  0  0  0  0  0  0  0  0  0  0  0
    6.3935   -1.6182   -0.0741 H    0  0  0  0  0  0  0  0  0  0  0  0
    2.8451    0.7995   -0.4546 H    0  0  0  0  0  0  0  0  0  0  0  0
    7.1132    8.4631   -0.9899 H    0  0  0  0  0  0  0  0  0  0  0  0
   10.6353    6.0162   -0.6262 H    0  0  0  0  0  0  0  0  0  0  0  0
    9.5896    8.2564   -0.8733 H    0  0  0  0  0  0  0  0  0  0  0  0
    2.7666   -1.5660    0.0500 H    0  0  0  0  0  0  0  0  0  0  0  0
    4.1484   -2.5183    0.1891 H    0  0  0  0  0  0  0  0  0  0  0  0
  1  2  2  0
  1  4  1  0
  2  3  1  0
 13 15  1  0
  3  5  1  0
  5  9  2  0
  9 13  1  0
 13 10  2  0
 10  6  1  0
  3  6  2  0
  4  7  1  0
  7 11  2  0
 11 14  1  0
 14 12  2  0
 12  8  1  0
  4  8  2  0
  5 16  1  0
  6 17  1  0
  7 18  1  0
  8 19  1  0
  9 20  1  0
 10 21  1  0
 11 22  1  0
 12 23  1  0
 14 24  1  0
 15 25  1  0
 15 26  1  0
M  END
