  P-CHLOROBENZOTRIFLUORIDE.mol	98-56-6
  NIST    07061516303D 1   1.00000 -1028.88151
Copyright by the U.S. Sec. Commerce on behalf of U.S.A. All rights reserved.
 15 15  0  0  0  0  0  0  0  0999 V2000
    6.7621    4.1793   -0.5223 F    0  0  0  0  0  0  0  0  0  0  0  0
    7.2412    3.0030   -0.9834 C    0  0  0  0  0  0  0  0  0  0  0  0
    7.3947    3.1394   -2.3213 F    0  0  0  0  0  0  0  0  0  0  0  0
    8.4765    2.8327   -0.4627 F    0  0  0  0  0  0  0  0  0  0  0  0
    6.3288    1.8561   -0.6420 C    0  0  0  0  0  0  0  0  0  0  0  0
    6.8559    0.5746   -0.4642 C    0  0  0  0  0  0  0  0  0  0  0  0
    4.9499    2.0635   -0.5531 C    0  0  0  0  0  0  0  0  0  0  0  0
    6.0110   -0.5007   -0.1980 C    0  0  0  0  0  0  0  0  0  0  0  0
    4.0960    0.9953   -0.2873 C    0  0  0  0  0  0  0  0  0  0  0  0
    4.6365   -0.2789   -0.1129 C    0  0  0  0  0  0  0  0  0  0  0  0
    3.5664   -1.6286    0.2248 Cl   0  0  0  0  0  0  0  0  0  0  0  0
    7.9274    0.4163   -0.5251 H    0  0  0  0  0  0  0  0  0  0  0  0
    4.5420    3.0604   -0.6831 H    0  0  0  0  0  0  0  0  0  0  0  0
    6.4119   -1.4981   -0.0546 H    0  0  0  0  0  0  0  0  0  0  0  0
    3.0249    1.1475   -0.2122 H    0  0  0  0  0  0  0  0  0  0  0  0
  1  2  1  0  0  0  0
  2  3  1  0  0  0  0
  2  4  1  0  0  0  0
  2  5  1  0  0  0  0
  5  6  1  0  0  0  0
  5  7  2  0  0  0  0
  6  8  2  0  0  0  0
  6 12  1  0  0  0  0
  7 13  1  0  0  0  0
  8 10  1  0  0  0  0
  8 14  1  0  0  0  0
  9  7  1  0  0  0  0
  9 15  1  0  0  0  0
 10 11  1  0  0  0  0
 10  9  2  0  0  0  0
M  END
