  P-CHLOROANILINE.mol	106-47-8
  NIST    06201423013D 1   1.00000  -747.19797
Copyright by the U.S. Sec. Commerce on behalf of U.S.A. All rights reserved.
 14 14  0  0  0  0  0  0  0  0999 V2000
    6.3325    1.8567   -0.6829 C    0  0  0  0  0  0  0  0  0  0  0  0
    6.8523    0.5963   -0.3413 C    0  0  0  0  0  0  0  0  0  0  0  0
    4.9365    2.0140   -0.7221 C    0  0  0  0  0  0  0  0  0  0  0  0
    7.1815    2.9409   -0.9174 N    0  0  0  0  0  0  0  0  0  0  0  0
    4.0877    0.9497   -0.4302 C    0  0  0  0  0  0  0  0  0  0  0  0
    4.6262   -0.2912   -0.0946 C    0  0  0  0  0  0  0  0  0  0  0  0
    6.0075   -0.4710   -0.0487 C    0  0  0  0  0  0  0  0  0  0  0  0
    3.5538   -1.6418    0.2712 Cl   0  0  0  0  0  0  0  0  0  0  0  0
    7.9295    0.4523   -0.2997 H    0  0  0  0  0  0  0  0  0  0  0  0
    4.5116    2.9817   -0.9789 H    0  0  0  0  0  0  0  0  0  0  0  0
    6.7871    3.6778   -1.4887 H    0  0  0  0  0  0  0  0  0  0  0  0
    8.1146    2.6957   -1.2243 H    0  0  0  0  0  0  0  0  0  0  0  0
    3.0116    1.0844   -0.4658 H    0  0  0  0  0  0  0  0  0  0  0  0
    6.4218   -1.4395    0.2115 H    0  0  0  0  0  0  0  0  0  0  0  0
  1  4  1  0
  6  8  1  0
  1  2  1  0
  2  7  2  0
  7  6  1  0
  6  5  2  0
  5  3  1  0
  1  3  2  0
  2  9  1  0
  3 10  1  0
  4 11  1  0
  4 12  1  0
  5 13  1  0
  7 14  1  0
M  END
