  P-CRESOL.mol	106-44-5
  NIST    07011510283D 1   1.00000  -346.78225
Copyright by the U.S. Sec. Commerce on behalf of U.S.A. All rights reserved.
 16 16  0  0  0  0  0  0  0  0999 V2000
    0.3971    1.0809    1.8488 C    0  0  0  0  0  0  0  0  0  0  0  0
    1.9065    1.0407    1.9138 C    0  0  0  0  0  0  0  0  0  0  0  0
    2.6673    0.4812    0.8834 C    0  0  0  0  0  0  0  0  0  0  0  0
    2.5957    1.5758    3.0139 C    0  0  0  0  0  0  0  0  0  0  0  0
    4.0628    0.4536    0.9378 C    0  0  0  0  0  0  0  0  0  0  0  0
    3.9845    1.5575    3.0859 C    0  0  0  0  0  0  0  0  0  0  0  0
    4.7258    0.9934    2.0415 C    0  0  0  0  0  0  0  0  0  0  0  0
    6.0910    0.9988    2.1605 O    0  0  0  0  0  0  0  0  0  0  0  0
    0.0206    0.5207    0.9866 H    0  0  0  0  0  0  0  0  0  0  0  0
   -0.0579    0.6500    2.7492 H    0  0  0  0  0  0  0  0  0  0  0  0
    0.0229    2.1094    1.7616 H    0  0  0  0  0  0  0  0  0  0  0  0
    2.1655    0.0557    0.0172 H    0  0  0  0  0  0  0  0  0  0  0  0
    2.0315    2.0165    3.8333 H    0  0  0  0  0  0  0  0  0  0  0  0
    4.6319    0.0105    0.1219 H    0  0  0  0  0  0  0  0  0  0  0  0
    4.5111    1.9721    3.9400 H    0  0  0  0  0  0  0  0  0  0  0  0
    6.4746    0.5805    1.3742 H    0  0  0  0  0  0  0  0  0  0  0  0
  1  2  1  0  0  0  0
  1  9  1  0  0  0  0
  1 10  1  0  0  0  0
  1 11  1  0  0  0  0
  2  4  1  0  0  0  0
  3  2  2  0  0  0  0
  3 12  1  0  0  0  0
  4  6  2  0  0  0  0
  4 13  1  0  0  0  0
  5  3  1  0  0  0  0
  5 14  1  0  0  0  0
  6  7  1  0  0  0  0
  6 15  1  0  0  0  0
  7  5  2  0  0  0  0
  7  8  1  0  0  0  0
  8 16  1  0  0  0  0
M  END
