  P-DIBROMOBENZENE.mol	106-37-6
  NIST    06201414463D 1   1.00000 -5374.45727
Copyright by the U.S. Sec. Commerce on behalf of U.S.A. All rights reserved.
 12 12  0  0  0  0  0  0  0  0999 V2000
    0.8493    1.0756   -0.2852 C    0  0  0  0  0  0  0  0  0  0  0  0
    1.3710   -0.1730    0.0481 C    0  0  0  0  0  0  0  0  0  0  0  0
   -0.5342    1.2500   -0.3339 C    0  0  0  0  0  0  0  0  0  0  0  0
   -1.3710    0.1730   -0.0481 C    0  0  0  0  0  0  0  0  0  0  0  0
   -0.8493   -1.0756    0.2852 C    0  0  0  0  0  0  0  0  0  0  0  0
   -3.2650    0.4121   -0.1145 Br   0  0  0  0  0  0  0  0  0  0  0  0
    0.5342   -1.2500    0.3339 C    0  0  0  0  0  0  0  0  0  0  0  0
    3.2650   -0.4121    0.1145 Br   0  0  0  0  0  0  0  0  0  0  0  0
    1.5120    1.9053   -0.5051 H    0  0  0  0  0  0  0  0  0  0  0  0
   -0.9536    2.2160   -0.5922 H    0  0  0  0  0  0  0  0  0  0  0  0
   -1.5120   -1.9053    0.5051 H    0  0  0  0  0  0  0  0  0  0  0  0
    0.9536   -2.2160    0.5922 H    0  0  0  0  0  0  0  0  0  0  0  0
  1  2  1  0  0  0  0
  1  3  2  0  0  0  0
  1  9  1  0  0  0  0
  2  8  1  0  0  0  0
  2  7  2  0  0  0  0
  3 10  1  0  0  0  0
  4  6  1  0  0  0  0
  4  3  1  0  0  0  0
  5  4  2  0  0  0  0
  5 11  1  0  0  0  0
  7  5  1  0  0  0  0
  7 12  1  0  0  0  0
M  END
