  P-DIFLUOROBENZENE.mol	540-36-3
  NIST    06201314163D 1   1.00000  -430.71388
Copyright by the U.S. Sec. Commerce on behalf of U.S.A. All rights reserved.
 12 12  0  0  0  0  0  0  0  0999 V2000
    7.1381    2.8755   -0.9401 F    0  0  0  0  0  0  0  0  0  0  0  0
    6.3167    1.8396   -0.6654 C    0  0  0  0  0  0  0  0  0  0  0  0
    6.8724    0.6077   -0.3363 C    0  0  0  0  0  0  0  0  0  0  0  0
    4.9410    2.0370   -0.7201 C    0  0  0  0  0  0  0  0  0  0  0  0
    6.0239   -0.4627   -0.0524 C    0  0  0  0  0  0  0  0  0  0  0  0
    4.0925    0.9666   -0.4362 C    0  0  0  0  0  0  0  0  0  0  0  0
    4.6482   -0.2653   -0.1071 C    0  0  0  0  0  0  0  0  0  0  0  0
    3.8268   -1.3012    0.1676 F    0  0  0  0  0  0  0  0  0  0  0  0
    7.9511    0.4967   -0.3052 H    0  0  0  0  0  0  0  0  0  0  0  0
    4.5489    3.0143   -0.9812 H    0  0  0  0  0  0  0  0  0  0  0  0
    6.4160   -1.4400    0.2087 H    0  0  0  0  0  0  0  0  0  0  0  0
    3.0138    1.0776   -0.4673 H    0  0  0  0  0  0  0  0  0  0  0  0
  1  2  1  0
  7  8  1  0
  2  3  1  0
  3  5  2  0
  5  7  1  0
  7  6  2  0
  6  4  1  0
  2  4  2  0
  3  9  1  0
  4 10  1  0
  5 11  1  0
  6 12  1  0
M  END
