  P-HYDROXYBENZOIC ACID.mol	99-96-7
  NIST    06201314153D 1   1.00000  -496.02824
Copyright by the U.S. Sec. Commerce on behalf of U.S.A. All rights reserved.
 16 16  0  0  0  0  0  0  0  0999 V2000
    7.0479    4.1431   -0.4735 O    0  0  0  0  0  0  0  0  0  0  0  0
    7.4081    2.8701   -0.8073 C    0  0  0  0  0  0  0  0  0  0  0  0
    8.5007    2.6635   -1.2817 O    0  0  0  0  0  0  0  0  0  0  0  0
    6.4005    1.7964   -0.5556 C    0  0  0  0  0  0  0  0  0  0  0  0
    6.8557    0.4683   -0.5038 C    0  0  0  0  0  0  0  0  0  0  0  0
    5.0286    2.0424   -0.4082 C    0  0  0  0  0  0  0  0  0  0  0  0
    5.9772   -0.5805   -0.2798 C    0  0  0  0  0  0  0  0  0  0  0  0
    4.6087   -0.3185   -0.1212 C    0  0  0  0  0  0  0  0  0  0  0  0
    3.7905   -1.3846    0.0940 O    0  0  0  0  0  0  0  0  0  0  0  0
    4.1346    0.9969   -0.1934 C    0  0  0  0  0  0  0  0  0  0  0  0
    6.2338    4.1295    0.0547 H    0  0  0  0  0  0  0  0  0  0  0  0
    7.9155    0.2820   -0.6421 H    0  0  0  0  0  0  0  0  0  0  0  0
    4.6288    3.0499   -0.5004 H    0  0  0  0  0  0  0  0  0  0  0  0
    6.3234   -1.6076   -0.2282 H    0  0  0  0  0  0  0  0  0  0  0  0
    2.8742   -1.0772    0.1800 H    0  0  0  0  0  0  0  0  0  0  0  0
    3.0703    1.1999   -0.0930 H    0  0  0  0  0  0  0  0  0  0  0  0
  1  2  1  0
  2  3  2  0
  2  4  1  0
  8  9  1  0
  4  5  1  0
  5  7  2  0
  7  8  1  0
  8 10  2  0
 10  6  1  0
  4  6  2  0
  1 11  1  0
  5 12  1  0
  6 13  1  0
  7 14  1  0
  9 15  1  0
 10 16  1  0
M  END
