  P-NITROTOLUENE.mol	99-99-0
  NIST    07011321453D 1   1.00000  -476.06966
Copyright by the U.S. Sec. Commerce on behalf of U.S.A. All rights reserved.
 17 17  0  0  0  0  0  0  0  0999 V2000
    6.3473    1.8494   -0.6311 C    0  0  0  0  0  0  0  0  0  0  0  0
    6.8706    0.6021   -0.3053 C    0  0  0  0  0  0  0  0  0  0  0  0
    4.9635    1.9942   -0.7092 C    0  0  0  0  0  0  0  0  0  0  0  0
    6.0334   -0.4961   -0.0548 C    0  0  0  0  0  0  0  0  0  0  0  0
    4.6452   -0.3126   -0.1471 C    0  0  0  0  0  0  0  0  0  0  0  0
    6.6116   -1.8362    0.3293 C    0  0  0  0  0  0  0  0  0  0  0  0
    4.1006    0.9260   -0.4716 C    0  0  0  0  0  0  0  0  0  0  0  0
    4.3997    3.3058   -1.0552 N    0  0  0  0  0  0  0  0  0  0  0  0
    5.1856    4.2316   -1.2599 O    0  0  0  0  0  0  0  0  0  0  0  0
    3.1739    3.4039   -1.1196 O    0  0  0  0  0  0  0  0  0  0  0  0
    6.9858    2.7019   -0.8273 H    0  0  0  0  0  0  0  0  0  0  0  0
    7.9487    0.4776   -0.2454 H    0  0  0  0  0  0  0  0  0  0  0  0
    3.9810   -1.1531    0.0368 H    0  0  0  0  0  0  0  0  0  0  0  0
    7.6018   -1.9876   -0.1123 H    0  0  0  0  0  0  0  0  0  0  0  0
    6.7250   -1.9148    1.4187 H    0  0  0  0  0  0  0  0  0  0  0  0
    5.9644   -2.6590    0.0094 H    0  0  0  0  0  0  0  0  0  0  0  0
    3.0307    1.0765   -0.5466 H    0  0  0  0  0  0  0  0  0  0  0  0
  3  8  1  0
  4  6  1  0
  8  9  2  0
  8 10  2  0
  1  2  1  0
  2  4  2  0
  4  5  1  0
  5  7  2  0
  7  3  1  0
  1  3  2  0
  1 11  1  0
  2 12  1  0
  5 13  1  0
  6 14  1  0
  6 15  1  0
  6 16  1  0
  7 17  1  0
M  END
