  P-TOLUIC ACID.mol	99-94-5
  NIST    07011322293D 1   1.00000  -460.14089
Copyright by the U.S. Sec. Commerce on behalf of U.S.A. All rights reserved.
 18 18  0  0  0  0  0  0  0  0999 V2000
    6.3366    1.8470   -0.6724 C    0  0  0  0  0  0  0  0  0  0  0  0
    6.8680    0.6040   -0.3364 C    0  0  0  0  0  0  0  0  0  0  0  0
    4.9481    2.0260   -0.7157 C    0  0  0  0  0  0  0  0  0  0  0  0
    6.0363   -0.4841   -0.0396 C    0  0  0  0  0  0  0  0  0  0  0  0
    4.1061    0.9453   -0.4175 C    0  0  0  0  0  0  0  0  0  0  0  0
    4.3228    3.3254   -1.0647 C    0  0  0  0  0  0  0  0  0  0  0  0
    4.6463   -0.2905   -0.0834 C    0  0  0  0  0  0  0  0  0  0  0  0
    6.6141   -1.8365    0.3006 C    0  0  0  0  0  0  0  0  0  0  0  0
    5.2319    4.3001   -1.3340 O    0  0  0  0  0  0  0  0  0  0  0  0
    3.1262    3.5345   -1.1151 O    0  0  0  0  0  0  0  0  0  0  0  0
    6.9937    2.6797   -0.8984 H    0  0  0  0  0  0  0  0  0  0  0  0
    7.9472    0.4752   -0.3028 H    0  0  0  0  0  0  0  0  0  0  0  0
    3.0321    1.0972   -0.4509 H    0  0  0  0  0  0  0  0  0  0  0  0
    3.9835   -1.1209    0.1491 H    0  0  0  0  0  0  0  0  0  0  0  0
    7.6754   -1.7670    0.5589 H    0  0  0  0  0  0  0  0  0  0  0  0
    6.0876   -2.2959    1.1450 H    0  0  0  0  0  0  0  0  0  0  0  0
    6.5255   -2.5278   -0.5479 H    0  0  0  0  0  0  0  0  0  0  0  0
    4.7060    5.0930   -1.5464 H    0  0  0  0  0  0  0  0  0  0  0  0
  3  6  1  0
  4  8  1  0
  6  9  1  0
  6 10  2  0
  1  2  1  0
  2  4  2  0
  4  7  1  0
  7  5  2  0
  5  3  1  0
  1  3  2  0
  1 11  1  0
  2 12  1  0
  5 13  1  0
  7 14  1  0
  8 15  1  0
  8 16  1  0
  8 17  1  0
  9 18  1  0
M  END
