  P-TOLUALDEHYDE.mol	104-87-0
  NIST    07011510353D 1   1.00000  -384.89235
Copyright by the U.S. Sec. Commerce on behalf of U.S.A. All rights reserved.
 17 17  0  0  0  0  0  0  0  0999 V2000
    2.8100    0.7683    6.9332 O    0  0  0  0  0  0  0  0  0  0  0  0
    1.9303    0.5532    6.1203 C    0  0  0  0  0  0  0  0  0  0  0  0
    1.9392    1.0257    4.7204 C    0  0  0  0  0  0  0  0  0  0  0  0
    0.8717    0.7189    3.8693 C    0  0  0  0  0  0  0  0  0  0  0  0
    3.0149    1.7833    4.2291 C    0  0  0  0  0  0  0  0  0  0  0  0
    0.8761    1.1609    2.5476 C    0  0  0  0  0  0  0  0  0  0  0  0
    3.0134    2.2204    2.9123 C    0  0  0  0  0  0  0  0  0  0  0  0
    1.9439    1.9181    2.0491 C    0  0  0  0  0  0  0  0  0  0  0  0
    1.9517    2.4106    0.6220 C    0  0  0  0  0  0  0  0  0  0  0  0
    1.0302   -0.0386    6.4024 H    0  0  0  0  0  0  0  0  0  0  0  0
    0.0368    0.1305    4.2451 H    0  0  0  0  0  0  0  0  0  0  0  0
    3.8374    2.0126    4.9000 H    0  0  0  0  0  0  0  0  0  0  0  0
    0.0430    0.9168    1.8931 H    0  0  0  0  0  0  0  0  0  0  0  0
    3.8501    2.8055    2.5370 H    0  0  0  0  0  0  0  0  0  0  0  0
    2.8827    2.1369    0.1115 H    0  0  0  0  0  0  0  0  0  0  0  0
    1.1172    1.9957    0.0488 H    0  0  0  0  0  0  0  0  0  0  0  0
    1.8736    3.5046    0.5811 H    0  0  0  0  0  0  0  0  0  0  0  0
  1  2  2  0  0  0  0
  2  3  1  0  0  0  0
  2 10  1  0  0  0  0
  3  4  2  0  0  0  0
  4  6  1  0  0  0  0
  4 11  1  0  0  0  0
  5  3  1  0  0  0  0
  5 12  1  0  0  0  0
  6  8  2  0  0  0  0
  6 13  1  0  0  0  0
  7  5  2  0  0  0  0
  7 14  1  0  0  0  0
  8  7  1  0  0  0  0
  8  9  1  0  0  0  0
  9 15  1  0  0  0  0
  9 16  1  0  0  0  0
  9 17  1  0  0  0  0
M  END
