
 OpenBabel06061914163D

 20 20  0  0  0  0  0  0  0  0999 V2000
    0.8768    0.1808    0.3819 C   0  0  0  0  0  0  0  0  0  0  0  0
    0.6691   -1.2127    0.3561 C   0  0  0  0  0  0  0  0  0  0  0  0
   -0.6192   -1.7499    0.3035 C   0  0  0  0  0  0  0  0  0  0  0  0
   -1.7308   -0.9087    0.2753 C   0  0  0  0  0  0  0  0  0  0  0  0
   -2.9690   -1.4407    0.2245 O   0  0  0  0  0  0  0  0  0  0  0  0
   -1.5493    0.4786    0.3000 C   0  0  0  0  0  0  0  0  0  0  0  0
   -0.2626    1.0258    0.3527 C   0  0  0  0  0  0  0  0  0  0  0  0
    1.5154   -1.8881    0.3772 H   0  0  0  0  0  0  0  0  0  0  0  0
   -0.7523   -2.8244    0.2846 H   0  0  0  0  0  0  0  0  0  0  0  0
   -3.7614   -0.8852    0.2038 H   0  0  0  0  0  0  0  0  0  0  0  0
   -2.4083    1.1379    0.2783 H   0  0  0  0  0  0  0  0  0  0  0  0
   -0.1989    2.0963    0.3690 H   0  0  0  0  0  0  0  0  0  0  0  0
    2.2368    0.6561    0.4363 N   0  0  0  0  0  0  0  0  0  0  0  0
    2.6629    1.9560    0.4694 C   0  0  0  0  0  0  0  0  0  0  0  0
    2.9746   -0.0657    0.4522 H   0  0  0  0  0  0  0  0  0  0  0  0
    1.8818    2.8912    0.4553 O   0  0  0  0  0  0  0  0  0  0  0  0
    4.1342    2.2466    0.5251 C   0  0  0  0  0  0  0  0  0  0  0  0
    4.6331    1.8179   -0.3692 H   0  0  0  0  0  0  0  0  0  0  0  0
    4.5697    1.7923    1.4396 H   0  0  0  0  0  0  0  0  0  0  0  0
    4.3210    3.3417    0.5471 H   0  0  0  0  0  0  0  0  0  0  0  0
  1  2  2  0  0  0  0
  1  7  1  0  0  0  0
  2  3  1  0  0  0  0
  2  8  1  0  0  0  0
  3  4  2  0  0  0  0
  3  9  1  0  0  0  0
  4  5  1  0  0  0  0
  4  6  1  0  0  0  0
  5 10  1  0  0  0  0
  6  7  2  0  0  0  0
  6 11  1  0  0  0  0
  7 12  1  0  0  0  0
 13  1  1  0  0  0  0
 14 13  1  0  0  0  0
 15 13  1  0  0  0  0
 16 14  2  0  0  0  0
 17 14  1  0  0  0  0
 18 17  1  0  0  0  0
 19 17  1  0  0  0  0
 20 17  1  0  0  0  0
M  END
