  PENTAFLUOROPHENOL.mol	771-61-9
  NIST    07161422523D 1   1.00000  -803.58847
Copyright by the U.S. Sec. Commerce on behalf of U.S.A. All rights reserved.
 13 13  0  0  0  0  0  0  0  0999 V2000
    0.8349    1.4031   -0.3738 C    0  0  0  0  0  0  0  0  0  0  0  0
    1.3780    0.1637   -0.0436 C    0  0  0  0  0  0  0  0  0  0  0  0
   -0.5474    1.5803   -0.4225 C    0  0  0  0  0  0  0  0  0  0  0  0
    1.6447    2.4315   -0.6463 F    0  0  0  0  0  0  0  0  0  0  0  0
   -1.0622    2.7740   -0.7404 F    0  0  0  0  0  0  0  0  0  0  0  0
   -1.3885    0.5072   -0.1380 C    0  0  0  0  0  0  0  0  0  0  0  0
   -0.8347   -0.7250    0.1902 C    0  0  0  0  0  0  0  0  0  0  0  0
   -2.7163    0.6603   -0.1800 F    0  0  0  0  0  0  0  0  0  0  0  0
    0.5467   -0.9228    0.2444 C    0  0  0  0  0  0  0  0  0  0  0  0
   -1.6324   -1.7801    0.4702 F    0  0  0  0  0  0  0  0  0  0  0  0
    1.0941   -2.1219    0.5640 O    0  0  0  0  0  0  0  0  0  0  0  0
    2.7070    0.0137   -0.0019 F    0  0  0  0  0  0  0  0  0  0  0  0
    0.3680   -2.7467    0.7313 H    0  0  0  0  0  0  0  0  0  0  0  0
  1  4  1  0  0  0  0
  1  2  1  0  0  0  0
  1  3  2  0  0  0  0
  2 12  1  0  0  0  0
  2  9  2  0  0  0  0
  3  5  1  0  0  0  0
  6  8  1  0  0  0  0
  6  3  1  0  0  0  0
  7 10  1  0  0  0  0
  7  6  2  0  0  0  0
  9 11  1  0  0  0  0
  9  7  1  0  0  0  0
 11 13  1  0  0  0  0
M  END
