  PENTAMETHYLENE DICYANIDE.mol	646-20-8
  NIST    11121313213D 1   1.00000  -382.24731
Copyright by the U.S. Sec. Commerce on behalf of U.S.A. All rights reserved.
 19 18  0  0  0  0  0  0  0  0999 V2000
   -0.0273   36.8831    0.0003 N    0  0  0  0  0  0  0  0  0  0  0  0
    1.0886   37.2026   -0.0000 C    0  0  0  0  0  0  0  0  0  0  0  0
    2.4907   37.6302   -0.0003 C    0  0  0  0  0  0  0  0  0  0  0  0
    2.6434   39.1660   -0.0000 C    0  0  0  0  0  0  0  0  0  0  0  0
    4.1152   39.5953   -0.0000 C    0  0  0  0  0  0  0  0  0  0  0  0
    4.2834   41.1195    0.0001 C    0  0  0  0  0  0  0  0  0  0  0  0
    5.7693   41.5360    0.0002 C    0  0  0  0  0  0  0  0  0  0  0  0
    5.9468   42.9911    0.0004 C    0  0  0  0  0  0  0  0  0  0  0  0
    6.0677   44.1455    0.0004 N    0  0  0  0  0  0  0  0  0  0  0  0
    2.9846   37.1987    0.8798 H    0  0  0  0  0  0  0  0  0  0  0  0
    2.9842   37.1990   -0.8807 H    0  0  0  0  0  0  0  0  0  0  0  0
    2.1326   39.5768   -0.8793 H    0  0  0  0  0  0  0  0  0  0  0  0
    2.1326   39.5766    0.8794 H    0  0  0  0  0  0  0  0  0  0  0  0
    4.6205   39.1711    0.8799 H    0  0  0  0  0  0  0  0  0  0  0  0
    4.6204   39.1713   -0.8801 H    0  0  0  0  0  0  0  0  0  0  0  0
    3.7902   41.5515   -0.8791 H    0  0  0  0  0  0  0  0  0  0  0  0
    3.7902   41.5513    0.8794 H    0  0  0  0  0  0  0  0  0  0  0  0
    6.2797   41.1246    0.8804 H    0  0  0  0  0  0  0  0  0  0  0  0
    6.2797   41.1248   -0.8802 H    0  0  0  0  0  0  0  0  0  0  0  0
  1  2  3  0
  2  3  1  0
  3  4  1  0
  4  5  1  0
  5  6  1  0
  6  7  1  0
  7  8  1  0
  8  9  3  0
  3 10  1  0
  3 11  1  0
  4 12  1  0
  4 13  1  0
  5 14  1  0
  5 15  1  0
  6 16  1  0
  6 17  1  0
  7 18  1  0
  7 19  1  0
M  END
