  PERFLUORODECALIN.mol	306-94-5
  NIST    08101209293D 1   1.00000 -2178.10838
Copyright by the U.S. Sec. Commerce on behalf of U.S.A. All rights reserved.
 28 29  0  0  0  0  0  0  0  0999 V2000
   51.7850   28.5313    1.3467 C    0  0  0  0  0  0  0  0  0  0  0  0
   53.2359   29.0797    1.2709 C    0  0  0  0  0  0  0  0  0  0  0  0
   51.2447   28.9168    2.5211 F    0  0  0  0  0  0  0  0  0  0  0  0
   51.0640   29.0597    0.3318 F    0  0  0  0  0  0  0  0  0  0  0  0
   51.7261   26.9913    1.2448 C    0  0  0  0  0  0  0  0  0  0  0  0
   52.5171   26.4435    0.0260 C    0  0  0  0  0  0  0  0  0  0  0  0
   50.4388   26.6056    1.1263 F    0  0  0  0  0  0  0  0  0  0  0  0
   52.2457   26.4635    2.3763 F    0  0  0  0  0  0  0  0  0  0  0  0
   53.9793   26.9815   -0.0357 C    0  0  0  0  0  0  0  0  0  0  0  0
   52.5434   25.0975    0.1212 F    0  0  0  0  0  0  0  0  0  0  0  0
   51.8475   26.7947   -1.0959 F    0  0  0  0  0  0  0  0  0  0  0  0
   53.1656   30.4256    1.1989 F    0  0  0  0  0  0  0  0  0  0  0  0
   54.0207   28.5415    0.0357 C    0  0  0  0  0  0  0  0  0  0  0  0
   53.8730   28.7303    2.4120 F    0  0  0  0  0  0  0  0  0  0  0  0
   55.4829   29.0795   -0.0259 C    0  0  0  0  0  0  0  0  0  0  0  0
   53.3767   29.0318   -1.0797 F    0  0  0  0  0  0  0  0  0  0  0  0
   54.7641   26.4433   -1.2708 C    0  0  0  0  0  0  0  0  0  0  0  0
   54.6233   26.4912    1.0797 F    0  0  0  0  0  0  0  0  0  0  0  0
   56.2150   26.9917   -1.3466 C    0  0  0  0  0  0  0  0  0  0  0  0
   54.8343   25.0974   -1.1989 F    0  0  0  0  0  0  0  0  0  0  0  0
   54.1270   26.7927   -2.4120 F    0  0  0  0  0  0  0  0  0  0  0  0
   56.2738   28.5317   -1.2447 C    0  0  0  0  0  0  0  0  0  0  0  0
   56.7553   26.6062   -2.5211 F    0  0  0  0  0  0  0  0  0  0  0  0
   56.9360   26.4633   -0.3318 F    0  0  0  0  0  0  0  0  0  0  0  0
   57.5612   28.9174   -1.1262 F    0  0  0  0  0  0  0  0  0  0  0  0
   55.7543   29.0595   -2.3763 F    0  0  0  0  0  0  0  0  0  0  0  0
   55.4566   30.4255   -0.1212 F    0  0  0  0  0  0  0  0  0  0  0  0
   56.1525   28.7283    1.0959 F    0  0  0  0  0  0  0  0  0  0  0  0
  1  2  1  0
  1  3  1  0
  1  4  1  0
  5  1  1  0
  2 12  1  0
  2 13  1  0
  2 14  1  0
  6  5  1  0
  5  7  1  0
  5  8  1  0
  9  6  1  0
  6 10  1  0
  6 11  1  0
  9 13  1  0
 17  9  1  0
  9 18  1  0
 13 15  1  0
 13 16  1  0
 15 22  1  0
 15 27  1  0
 15 28  1  0
 19 17  1  0
 17 20  1  0
 17 21  1  0
 22 19  1  0
 19 23  1  0
 19 24  1  0
 22 25  1  0
 22 26  1  0
M  END
