
 OpenBabel10021913103D

 17 16  0  0  0  0  0  0  0  0999 V2000
   43.7186   18.5389   -0.7015 C   0  0  0  0  0  0  0  0  0  0  0  0
   43.4803   20.0633   -0.5308 C   0  0  0  0  0  0  0  0  0  0  0  0
   44.7525   20.8083   -0.0450 C   0  0  0  0  0  0  0  0  0  0  0  0
   43.0829   20.5960   -1.7469 F   0  0  0  0  0  0  0  0  0  0  0  0
   42.4637   20.2600    0.3903 F   0  0  0  0  0  0  0  0  0  0  0  0
   42.4631   17.7914   -1.1828 C   0  0  0  0  0  0  0  0  0  0  0  0
   44.7276   18.3256   -1.6266 F   0  0  0  0  0  0  0  0  0  0  0  0
   44.1088   17.9898    0.5091 F   0  0  0  0  0  0  0  0  0  0  0  0
   44.5264   22.3202    0.1272 C   0  0  0  0  0  0  0  0  0  0  0  0
   45.7765   20.6278   -0.9606 F   0  0  0  0  0  0  0  0  0  0  0  0
   45.1576   20.2920    1.1751 F   0  0  0  0  0  0  0  0  0  0  0  0
   42.7529   16.4446   -1.3106 F   0  0  0  0  0  0  0  0  0  0  0  0
   41.4303   17.9326   -0.2729 F   0  0  0  0  0  0  0  0  0  0  0  0
   42.0506   18.2693   -2.4140 F   0  0  0  0  0  0  0  0  0  0  0  0
   44.1606   22.9006   -1.0745 F   0  0  0  0  0  0  0  0  0  0  0  0
   43.5402   22.5639    1.0666 F   0  0  0  0  0  0  0  0  0  0  0  0
   45.6994   22.9122    0.5602 F   0  0  0  0  0  0  0  0  0  0  0  0
  1  2  1  0  0  0  0
  1  6  1  0  0  0  0
  1  7  1  0  0  0  0
  1  8  1  0  0  0  0
  2  3  1  0  0  0  0
  2  4  1  0  0  0  0
  2  5  1  0  0  0  0
  3  9  1  0  0  0  0
  3 10  1  0  0  0  0
  3 11  1  0  0  0  0
  6 12  1  0  0  0  0
  6 13  1  0  0  0  0
  6 14  1  0  0  0  0
  9 15  1  0  0  0  0
  9 16  1  0  0  0  0
  9 17  1  0  0  0  0
M  END
