  PERFLUOROCYCLOHEXANE.mol	355-68-0
  NIST    08031215073D 1   1.00000 -1426.67375
Copyright by the U.S. Sec. Commerce on behalf of U.S.A. All rights reserved.
 18 18  0  0  0  0  0  0  0  0999 V2000
   -3.8542    1.0272    1.1308 C    0  0  0  0  0  0  0  0  0  0  0  0
   -3.5788    0.4334    2.3097 F    0  0  0  0  0  0  0  0  0  0  0  0
   -2.7987    1.7879    0.7553 F    0  0  0  0  0  0  0  0  0  0  0  0
   -5.0844    1.9532    1.3069 C    0  0  0  0  0  0  0  0  0  0  0  0
   -4.0760   -0.0657    0.0549 C    0  0  0  0  0  0  0  0  0  0  0  0
   -5.5968    2.5305   -0.0370 C    0  0  0  0  0  0  0  0  0  0  0  0
   -6.0834    1.2330    1.8700 F    0  0  0  0  0  0  0  0  0  0  0  0
   -4.7534    2.9724    2.1254 F    0  0  0  0  0  0  0  0  0  0  0  0
   -6.7603    3.1772    0.1780 F    0  0  0  0  0  0  0  0  0  0  0  0
   -5.8187    1.4375   -1.1130 C    0  0  0  0  0  0  0  0  0  0  0  0
   -4.6768    3.4078   -0.5033 F    0  0  0  0  0  0  0  0  0  0  0  0
   -6.8742    0.6769   -0.7374 F    0  0  0  0  0  0  0  0  0  0  0  0
   -4.5884    0.5116   -1.2891 C    0  0  0  0  0  0  0  0  0  0  0  0
   -6.0940    2.0314   -2.2918 F    0  0  0  0  0  0  0  0  0  0  0  0
   -4.9195   -0.5076   -2.1075 F    0  0  0  0  0  0  0  0  0  0  0  0
   -3.5895    1.2317   -1.8521 F    0  0  0  0  0  0  0  0  0  0  0  0
   -4.9960   -0.9430    0.5211 F    0  0  0  0  0  0  0  0  0  0  0  0
   -2.9125   -0.7124   -0.1602 F    0  0  0  0  0  0  0  0  0  0  0  0
  1  2  1  0
  1  3  1  0
  4  7  1  0
  4  8  1  0
  5 17  1  0
  5 18  1  0
  6  9  1  0
  6 11  1  0
 10 12  1  0
 10 14  1  0
 13 15  1  0
 13 16  1  0
  1  4  1  0
  4  6  1  0
  6 10  1  0
 10 13  1  0
 13  5  1  0
  1  5  1  0
M  END
