  PERFLUORO-3-METHYLPENTANE.mol	865-71-4
  NIST    07061519113D 1   1.00000 -1626.37265
Copyright by the U.S. Sec. Commerce on behalf of U.S.A. All rights reserved.
 20 19  0  0  0  0  0  0  0  0999 V2000
    1.0876   -0.2469   -0.0055 C    0  0  0  0  0  0  0  0  0  0  0  0
    0.6435    0.0929    1.4524 C    0  0  0  0  0  0  0  0  0  0  0  0
    0.9871    1.5081    2.0342 C    0  0  0  0  0  0  0  0  0  0  0  0
    0.5164    2.7428    1.1900 C    0  0  0  0  0  0  0  0  0  0  0  0
   -0.9991    3.0286    1.0243 C    0  0  0  0  0  0  0  0  0  0  0  0
    0.5785    1.5795    3.5515 C    0  0  0  0  0  0  0  0  0  0  0  0
    0.2462    0.2940   -0.8939 F    0  0  0  0  0  0  0  0  0  0  0  0
    1.0471   -1.5780   -0.1477 F    0  0  0  0  0  0  0  0  0  0  0  0
    2.3318    0.1739   -0.2524 F    0  0  0  0  0  0  0  0  0  0  0  0
   -0.6922   -0.1214    1.5118 F    0  0  0  0  0  0  0  0  0  0  0  0
    1.2630   -0.8104    2.2512 F    0  0  0  0  0  0  0  0  0  0  0  0
    2.3601    1.6046    2.0231 F    0  0  0  0  0  0  0  0  0  0  0  0
    1.0682    3.8487    1.7379 F    0  0  0  0  0  0  0  0  0  0  0  0
    1.0331    2.6078   -0.0575 F    0  0  0  0  0  0  0  0  0  0  0  0
   -1.5904    3.1560    2.2199 F    0  0  0  0  0  0  0  0  0  0  0  0
   -1.1409    4.1741    0.3495 F    0  0  0  0  0  0  0  0  0  0  0  0
   -1.5989    2.0493    0.3388 F    0  0  0  0  0  0  0  0  0  0  0  0
    1.4053    0.8126    4.2680 F    0  0  0  0  0  0  0  0  0  0  0  0
    0.6715    2.8310    4.0181 F    0  0  0  0  0  0  0  0  0  0  0  0
   -0.6779    1.1527    3.7413 F    0  0  0  0  0  0  0  0  0  0  0  0
  1  9  1  0  0  0  0
  1  8  1  0  0  0  0
  1  7  1  0  0  0  0
  1  2  1  0  0  0  0
  2 11  1  0  0  0  0
  2 10  1  0  0  0  0
  2  3  1  0  0  0  0
  3 12  1  0  0  0  0
  3  6  1  0  0  0  0
  3  4  1  0  0  0  0
  4 14  1  0  0  0  0
  4 13  1  0  0  0  0
  4  5  1  0  0  0  0
  5 17  1  0  0  0  0
  5 16  1  0  0  0  0
  5 15  1  0  0  0  0
  6 20  1  0  0  0  0
  6 19  1  0  0  0  0
  6 18  1  0  0  0  0
M  END
