  PERFLUOROTOLUENE.mol	434-64-0
  NIST    08031215103D 1   1.00000 -1065.40683
Copyright by the U.S. Sec. Commerce on behalf of U.S.A. All rights reserved.
 15 15  0  0  0  0  0  0  0  0999 V2000
    6.3270    1.8176   -0.6581 C    0  0  0  0  0  0  0  0  0  0  0  0
    7.1327    2.8476   -0.9330 F    0  0  0  0  0  0  0  0  0  0  0  0
    6.8736    0.5728   -0.3227 C    0  0  0  0  0  0  0  0  0  0  0  0
    4.9538    2.0236   -0.7161 C    0  0  0  0  0  0  0  0  0  0  0  0
    4.0909    0.9653   -0.4362 C    0  0  0  0  0  0  0  0  0  0  0  0
    4.4598    3.2213   -1.0375 F    0  0  0  0  0  0  0  0  0  0  0  0
    4.6080   -0.2820   -0.1021 C    0  0  0  0  0  0  0  0  0  0  0  0
    2.7730    1.1495   -0.4890 F    0  0  0  0  0  0  0  0  0  0  0  0
    3.7813   -1.2960    0.1656 F    0  0  0  0  0  0  0  0  0  0  0  0
    5.9890   -0.4741   -0.0477 C    0  0  0  0  0  0  0  0  0  0  0  0
    6.4187   -1.6954    0.2766 F    0  0  0  0  0  0  0  0  0  0  0  0
    8.3807    0.4401   -0.2888 C    0  0  0  0  0  0  0  0  0  0  0  0
    8.7830   -0.7874    0.0725 F    0  0  0  0  0  0  0  0  0  0  0  0
    8.9159    1.3192    0.5824 F    0  0  0  0  0  0  0  0  0  0  0  0
    8.9078    0.7038   -1.5019 F    0  0  0  0  0  0  0  0  0  0  0  0
  1  2  1  0
  3 12  1  0
  4  6  1  0
  5  8  1  0
  7  9  1  0
 10 11  1  0
 12 13  1  0
 12 14  1  0
 12 15  1  0
  1  3  1  0
  3 10  2  0
 10  7  1  0
  7  5  2  0
  5  4  1  0
  1  4  2  0
M  END
