  PERFLUORONAPHTHALENE.mol	313-72-4
  NIST    08031215053D 1   1.00000 -1179.69699
Copyright by the U.S. Sec. Commerce on behalf of U.S.A. All rights reserved.
 18 19  0  0  0  0  0  0  0  0999 V2000
    6.8416    1.1924    1.5251 C    0  0  0  0  0  0  0  0  0  0  0  0
    5.7083    0.5274    1.9294 C    0  0  0  0  0  0  0  0  0  0  0  0
    7.9130    1.2602    2.3184 F    0  0  0  0  0  0  0  0  0  0  0  0
    6.8892    1.8156    0.2616 C    0  0  0  0  0  0  0  0  0  0  0  0
    5.8027    1.7656   -0.5791 C    0  0  0  0  0  0  0  0  0  0  0  0
    8.0045    2.4527   -0.1019 F    0  0  0  0  0  0  0  0  0  0  0  0
    4.6141    1.0894   -0.2001 C    0  0  0  0  0  0  0  0  0  0  0  0
    5.8920    2.3722   -1.7686 F    0  0  0  0  0  0  0  0  0  0  0  0
    5.7076   -0.0494    3.1369 F    0  0  0  0  0  0  0  0  0  0  0  0
    4.5655    0.4519    1.0914 C    0  0  0  0  0  0  0  0  0  0  0  0
    3.3769   -0.2243    1.4704 C    0  0  0  0  0  0  0  0  0  0  0  0
    3.4713    1.0139   -1.0381 C    0  0  0  0  0  0  0  0  0  0  0  0
    3.4720    1.5907   -2.2457 F    0  0  0  0  0  0  0  0  0  0  0  0
    2.3380    0.3489   -0.6338 C    0  0  0  0  0  0  0  0  0  0  0  0
    2.2904   -0.2743    0.6297 C    0  0  0  0  0  0  0  0  0  0  0  0
    1.2666    0.2811   -1.4272 F    0  0  0  0  0  0  0  0  0  0  0  0
    1.1751   -0.9114    0.9931 F    0  0  0  0  0  0  0  0  0  0  0  0
    3.2876   -0.8309    2.6599 F    0  0  0  0  0  0  0  0  0  0  0  0
  1  3  1  0
  2  9  1  0
  4  6  1  0
  5  8  1  0
 11 18  1  0
 12 13  1  0
 14 16  1  0
 15 17  1  0
 14 15  1  0
 15 11  2  0
 11 10  1  0
 10  2  2  0
  2  1  1  0
  1  4  2  0
  4  5  1  0
  5  7  2  0
 10  7  1  0
  7 12  1  0
 14 12  2  0
M  END
