  PHENYL ISOCYANATE.mol	103-71-9
  NIST    06181416453D 1   1.00000  -399.73250
Copyright by the U.S. Sec. Commerce on behalf of U.S.A. All rights reserved.
 14 14  0  0  0  0  0  0  0  0999 V2000
    6.8028    4.1444   -1.2783 C    0  0  0  0  0  0  0  0  0  0  0  0
    6.9145    2.9807   -0.9699 N    0  0  0  0  0  0  0  0  0  0  0  0
    6.1269    1.8638   -0.6731 C    0  0  0  0  0  0  0  0  0  0  0  0
    6.8378    5.2832   -1.5801 O    0  0  0  0  0  0  0  0  0  0  0  0
    6.7742    0.6649   -0.3522 C    0  0  0  0  0  0  0  0  0  0  0  0
    4.7253    1.9214   -0.6904 C    0  0  0  0  0  0  0  0  0  0  0  0
    6.0215   -0.4688   -0.0505 C    0  0  0  0  0  0  0  0  0  0  0  0
    3.9842    0.7816   -0.3871 C    0  0  0  0  0  0  0  0  0  0  0  0
    4.6265   -0.4167   -0.0662 C    0  0  0  0  0  0  0  0  0  0  0  0
    7.8589    0.6380   -0.3435 H    0  0  0  0  0  0  0  0  0  0  0  0
    4.2286    2.8548   -0.9403 H    0  0  0  0  0  0  0  0  0  0  0  0
    6.5298   -1.3964    0.1978 H    0  0  0  0  0  0  0  0  0  0  0  0
    2.8989    0.8322   -0.4022 H    0  0  0  0  0  0  0  0  0  0  0  0
    4.0434   -1.3022    0.1694 H    0  0  0  0  0  0  0  0  0  0  0  0
  1  2  2  0
  1  4  2  0
  2  3  1  0
  3  5  1  0
  5  7  2  0
  7  9  1  0
  9  8  2  0
  8  6  1  0
  3  6  2  0
  5 10  1  0
  6 11  1  0
  7 12  1  0
  8 13  1  0
  9 14  1  0
M  END
