
 OpenBabel11271911213D

 18 18  0  0  0  0  0  0  0  0999 V2000
    2.2383    0.8160    0.5139 C   0  0  0  0  0  0  0  0  0  0  0  0
    2.4792    2.0078    1.1281 O   0  0  0  0  0  0  0  0  0  0  0  0
    3.6518    2.6929    1.2489 C   0  0  0  0  0  0  0  0  0  0  0  0
    0.9006    0.1713    0.6872 C   0  0  0  0  0  0  0  0  0  0  0  0
    3.0694    0.2895   -0.2097 O   0  0  0  0  0  0  0  0  0  0  0  0
    3.5867    4.0367    1.6458 C   0  0  0  0  0  0  0  0  0  0  0  0
    4.9203    2.1119    1.0156 C   0  0  0  0  0  0  0  0  0  0  0  0
    4.7520    4.7940    1.7951 C   0  0  0  0  0  0  0  0  0  0  0  0
    6.0824    2.8759    1.1681 C   0  0  0  0  0  0  0  0  0  0  0  0
    5.9986    4.2146    1.5546 C   0  0  0  0  0  0  0  0  0  0  0  0
    0.7316   -0.0463    1.7624 H   0  0  0  0  0  0  0  0  0  0  0  0
    0.1083    0.8591    0.3250 H   0  0  0  0  0  0  0  0  0  0  0  0
    0.8416   -0.7789    0.1143 H   0  0  0  0  0  0  0  0  0  0  0  0
    2.6249    4.4964    1.8362 H   0  0  0  0  0  0  0  0  0  0  0  0
    5.0313    1.0785    0.7315 H   0  0  0  0  0  0  0  0  0  0  0  0
    4.6876    5.8309    2.0986 H   0  0  0  0  0  0  0  0  0  0  0  0
    7.0509    2.4266    0.9895 H   0  0  0  0  0  0  0  0  0  0  0  0
    6.9002    4.8018    1.6722 H   0  0  0  0  0  0  0  0  0  0  0  0
  1  2  1  0  0  0  0
  1  4  1  0  0  0  0
  1  5  2  0  0  0  0
  2  3  1  0  0  0  0
  3  6  2  0  0  0  0
  4 11  1  0  0  0  0
  4 12  1  0  0  0  0
  4 13  1  0  0  0  0
  6  8  1  0  0  0  0
  6 14  1  0  0  0  0
  7  3  1  0  0  0  0
  7 15  1  0  0  0  0
  8 10  2  0  0  0  0
  8 16  1  0  0  0  0
  9  7  2  0  0  0  0
  9 17  1  0  0  0  0
 10  9  1  0  0  0  0
 10 18  1  0  0  0  0
M  END
