  PHOSPHORIC ACID.mol	7664-38-2
  NIST    07081514413D 1   1.00000  -644.13006
Copyright by the U.S. Sec. Commerce on behalf of U.S.A. All rights reserved.
  8  7  0  0  0  0  0  0  0  0999 V2000
    0.9070   -0.3408    0.3341 P    0  0  0  0  0  0  0  0  0  0  0  0
    1.0232   -1.5568   -0.4881 O    0  0  0  0  0  0  0  0  0  0  0  0
    0.9270   -0.6166    1.9159 O    0  0  0  0  0  0  0  0  0  0  0  0
   -0.4218    0.5715    0.2254 O    0  0  0  0  0  0  0  0  0  0  0  0
    2.0578    0.7701    0.0412 O    0  0  0  0  0  0  0  0  0  0  0  0
    0.7352    0.1806    2.4373 H    0  0  0  0  0  0  0  0  0  0  0  0
   -0.5610    0.9023   -0.6773 H    0  0  0  0  0  0  0  0  0  0  0  0
    2.8405    0.3340   -0.3355 H    0  0  0  0  0  0  0  0  0  0  0  0
  1  5  1  0  0  0  0
  1  4  1  0  0  0  0
  1  3  1  0  0  0  0
  1  2  2  0  0  0  0
  3  6  1  0  0  0  0
  4  7  1  0  0  0  0
  5  8  1  0  0  0  0
M  END
