  PIMELIC ACID.mol	111-16-0
  NIST    06301522013D 1   1.00000  -574.90400
Copyright by the U.S. Sec. Commerce on behalf of U.S.A. All rights reserved.
 23 22  0  0  0  0  0  0  0  0999 V2000
    2.0552    1.3643    1.0778 C    0  0  0  0  0  0  0  0  0  0  0  0
    3.3726    0.7038    1.4962 C    0  0  0  0  0  0  0  0  0  0  0  0
    4.5122    1.7018    1.7398 C    0  0  0  0  0  0  0  0  0  0  0  0
    1.3821    2.1363    2.1936 C    0  0  0  0  0  0  0  0  0  0  0  0
    5.8202    1.0117    2.1474 C    0  0  0  0  0  0  0  0  0  0  0  0
    0.3439    2.8772    1.7280 O    0  0  0  0  0  0  0  0  0  0  0  0
    1.6811    2.1104    3.3679 O    0  0  0  0  0  0  0  0  0  0  0  0
    6.9756    1.9848    2.4031 C    0  0  0  0  0  0  0  0  0  0  0  0
    7.5081    2.6380    1.1444 C    0  0  0  0  0  0  0  0  0  0  0  0
    8.3812    3.6364    1.4348 O    0  0  0  0  0  0  0  0  0  0  0  0
    7.2369    2.3292    0.0042 O    0  0  0  0  0  0  0  0  0  0  0  0
    1.3319    0.6103    0.7376 H    0  0  0  0  0  0  0  0  0  0  0  0
    2.1960    2.0421    0.2267 H    0  0  0  0  0  0  0  0  0  0  0  0
    3.1998    0.1135    2.4044 H    0  0  0  0  0  0  0  0  0  0  0  0
    3.6699   -0.0008    0.7088 H    0  0  0  0  0  0  0  0  0  0  0  0
    4.6839    2.2867    0.8270 H    0  0  0  0  0  0  0  0  0  0  0  0
    4.2116    2.4048    2.5272 H    0  0  0  0  0  0  0  0  0  0  0  0
    5.6528    0.4280    3.0619 H    0  0  0  0  0  0  0  0  0  0  0  0
    6.1215    0.3028    1.3665 H    0  0  0  0  0  0  0  0  0  0  0  0
   -0.0435    3.3162    2.5088 H    0  0  0  0  0  0  0  0  0  0  0  0
    7.8247    1.4681    2.8716 H    0  0  0  0  0  0  0  0  0  0  0  0
    6.6885    2.7763    3.1065 H    0  0  0  0  0  0  0  0  0  0  0  0
    8.6904    3.9804    0.5755 H    0  0  0  0  0  0  0  0  0  0  0  0
  1  2  1  0  0  0  0
  1  4  1  0  0  0  0
  1 12  1  0  0  0  0
  1 13  1  0  0  0  0
  2  3  1  0  0  0  0
  2 14  1  0  0  0  0
  2 15  1  0  0  0  0
  3  5  1  0  0  0  0
  3 16  1  0  0  0  0
  3 17  1  0  0  0  0
  4  6  1  0  0  0  0
  4  7  2  0  0  0  0
  5  8  1  0  0  0  0
  5 18  1  0  0  0  0
  5 19  1  0  0  0  0
  6 20  1  0  0  0  0
  8  9  1  0  0  0  0
  8 21  1  0  0  0  0
  8 22  1  0  0  0  0
  9 10  1  0  0  0  0
  9 11  2  0  0  0  0
 10 23  1  0  0  0  0
M  END
