  PIPERIDINE.mol	110-89-4
  NIST    06301518223D 1   1.00000  -251.90382
Copyright by the U.S. Sec. Commerce on behalf of U.S.A. All rights reserved.
 17 17  0  0  0  0  0  0  0  0999 V2000
    3.1452    3.3565    1.8193 C    0  0  0  0  0  0  0  0  0  0  0  0
    3.9190    2.1551    1.2521 C    0  0  0  0  0  0  0  0  0  0  0  0
    1.7049    3.3829    1.2818 C    0  0  0  0  0  0  0  0  0  0  0  0
    3.1412    0.8477    1.4864 C    0  0  0  0  0  0  0  0  0  0  0  0
    1.0131    2.0282    1.5159 C    0  0  0  0  0  0  0  0  0  0  0  0
    1.7571    0.8737    0.9979 N    0  0  0  0  0  0  0  0  0  0  0  0
    3.1176    3.2803    2.9168 H    0  0  0  0  0  0  0  0  0  0  0  0
    3.6629    4.2952    1.5852 H    0  0  0  0  0  0  0  0  0  0  0  0
    4.0702    2.2943    0.1709 H    0  0  0  0  0  0  0  0  0  0  0  0
    4.9178    2.0888    1.7043 H    0  0  0  0  0  0  0  0  0  0  0  0
    1.1292    4.1899    1.7548 H    0  0  0  0  0  0  0  0  0  0  0  0
    1.7207    3.5968    0.2023 H    0  0  0  0  0  0  0  0  0  0  0  0
    3.6549   -0.0006    1.0185 H    0  0  0  0  0  0  0  0  0  0  0  0
    3.1027    0.6373    2.5654 H    0  0  0  0  0  0  0  0  0  0  0  0
    0.8785    1.8724    2.5964 H    0  0  0  0  0  0  0  0  0  0  0  0
    0.0115    2.0201    1.0694 H    0  0  0  0  0  0  0  0  0  0  0  0
    1.7704    0.9237   -0.0215 H    0  0  0  0  0  0  0  0  0  0  0  0
  1  2  1  0  0  0  0
  1  7  1  0  0  0  0
  1  8  1  0  0  0  0
  2  4  1  0  0  0  0
  2  9  1  0  0  0  0
  2 10  1  0  0  0  0
  3  1  1  0  0  0  0
  3 11  1  0  0  0  0
  3 12  1  0  0  0  0
  4  6  1  0  0  0  0
  4 13  1  0  0  0  0
  4 14  1  0  0  0  0
  5  3  1  0  0  0  0
  5 15  1  0  0  0  0
  5 16  1  0  0  0  0
  6  5  1  0  0  0  0
  6 17  1  0  0  0  0
M  END
