  PROPARGYL ALCOHOL.mol	107-19-7
  NIST    07011509313D 1   1.00000  -191.84902
Copyright by the U.S. Sec. Commerce on behalf of U.S.A. All rights reserved.
  8  7  0  0  0  0  0  0  0  0999 V2000
    3.2475    1.7812    0.9286 C    0  0  0  0  0  0  0  0  0  0  0  0
    1.9693    1.0720    0.8994 C    0  0  0  0  0  0  0  0  0  0  0  0
    0.9023    0.5099    0.8739 C    0  0  0  0  0  0  0  0  0  0  0  0
    4.3124    0.8412    1.0416 O    0  0  0  0  0  0  0  0  0  0  0  0
    3.2451    2.4872    1.7759 H    0  0  0  0  0  0  0  0  0  0  0  0
    3.3421    2.3848    0.0104 H    0  0  0  0  0  0  0  0  0  0  0  0
   -0.0373    0.0060    0.8516 H    0  0  0  0  0  0  0  0  0  0  0  0
    5.1387    1.3495    1.0513 H    0  0  0  0  0  0  0  0  0  0  0  0
  1  2  1  0  0  0  0
  1  4  1  0  0  0  0
  1  5  1  0  0  0  0
  1  6  1  0  0  0  0
  2  3  3  0  0  0  0
  3  7  1  0  0  0  0
  4  8  1  0  0  0  0
M  END
