  PYRAZINE.mol	290-37-9
  NIST    06301514563D 1   1.00000  -264.31722
Copyright by the U.S. Sec. Commerce on behalf of U.S.A. All rights reserved.
 10 10  0  0  0  0  0  0  0  0999 V2000
    0.9845    1.0466    1.8257 C    0  0  0  0  0  0  0  0  0  0  0  0
    0.9611    0.3293    0.6273 C    0  0  0  0  0  0  0  0  0  0  0  0
    2.1289    1.4362    2.3990 N    0  0  0  0  0  0  0  0  0  0  0  0
    2.0815   -0.0116   -0.0195 N    0  0  0  0  0  0  0  0  0  0  0  0
    3.2493    1.0954    1.7522 C    0  0  0  0  0  0  0  0  0  0  0  0
    3.2258    0.3780    0.5538 C    0  0  0  0  0  0  0  0  0  0  0  0
    0.0606    1.3137    2.3353 H    0  0  0  0  0  0  0  0  0  0  0  0
    0.0184    0.0222    0.1782 H    0  0  0  0  0  0  0  0  0  0  0  0
    4.1920    1.4024    2.2013 H    0  0  0  0  0  0  0  0  0  0  0  0
    4.1497    0.1110    0.0442 H    0  0  0  0  0  0  0  0  0  0  0  0
  1  3  1  0  0  0  0
  1  7  1  0  0  0  0
  2  1  2  0  0  0  0
  2  8  1  0  0  0  0
  3  5  2  0  0  0  0
  4  2  1  0  0  0  0
  5  6  1  0  0  0  0
  5  9  1  0  0  0  0
  6  4  2  0  0  0  0
  6 10  1  0  0  0  0
M  END
