  PYRROLE.mol	109-97-7
  NIST    06301516363D 1   1.00000  -210.16589
Copyright by the U.S. Sec. Commerce on behalf of U.S.A. All rights reserved.
 10 10  0  0  0  0  0  0  0  0999 V2000
    2.8964    0.9059    0.1282 C    0  0  0  0  0  0  0  0  0  0  0  0
    1.4716    0.8786    0.1651 C    0  0  0  0  0  0  0  0  0  0  0  0
    3.2881    2.2179    0.2863 C    0  0  0  0  0  0  0  0  0  0  0  0
    1.0388    2.1749    0.3443 C    0  0  0  0  0  0  0  0  0  0  0  0
    2.1511    2.9807    0.4165 N    0  0  0  0  0  0  0  0  0  0  0  0
    3.5580    0.0597    0.0005 H    0  0  0  0  0  0  0  0  0  0  0  0
    0.8371    0.0076    0.0709 H    0  0  0  0  0  0  0  0  0  0  0  0
    4.2692    2.6696    0.3166 H    0  0  0  0  0  0  0  0  0  0  0  0
    0.0440    2.5889    0.4257 H    0  0  0  0  0  0  0  0  0  0  0  0
    2.1353    3.9804    0.5452 H    0  0  0  0  0  0  0  0  0  0  0  0
  1  2  1  0  0  0  0
  1  6  1  0  0  0  0
  2  4  2  0  0  0  0
  2  7  1  0  0  0  0
  3  1  2  0  0  0  0
  3  8  1  0  0  0  0
  4  5  1  0  0  0  0
  4  9  1  0  0  0  0
  5  3  1  0  0  0  0
  5 10  1  0  0  0  0
M  END
