  PYRROLIDINE.mol	123-75-1
  NIST    06301515113D 1   1.00000  -212.58202
Copyright by the U.S. Sec. Commerce on behalf of U.S.A. All rights reserved.
 14 14  0  0  0  0  0  0  0  0999 V2000
    2.7060    0.7916    1.0562 C    0  0  0  0  0  0  0  0  0  0  0  0
    1.2266    0.7939    1.5354 C    0  0  0  0  0  0  0  0  0  0  0  0
    3.2208    2.2181    1.4029 C    0  0  0  0  0  0  0  0  0  0  0  0
    1.0367    2.1995    2.1664 C    0  0  0  0  0  0  0  0  0  0  0  0
    2.0411    3.0848    1.5564 N    0  0  0  0  0  0  0  0  0  0  0  0
    3.3025    0.0145    1.5461 H    0  0  0  0  0  0  0  0  0  0  0  0
    2.7654    0.6074   -0.0224 H    0  0  0  0  0  0  0  0  0  0  0  0
    0.5455    0.6603    0.6870 H    0  0  0  0  0  0  0  0  0  0  0  0
    1.0130   -0.0107    2.2473 H    0  0  0  0  0  0  0  0  0  0  0  0
    3.7562    2.2016    2.3613 H    0  0  0  0  0  0  0  0  0  0  0  0
    3.9048    2.6308    0.6547 H    0  0  0  0  0  0  0  0  0  0  0  0
    0.0305    2.6087    2.0321 H    0  0  0  0  0  0  0  0  0  0  0  0
    1.2323    2.1578    3.2462 H    0  0  0  0  0  0  0  0  0  0  0  0
    1.7122    3.3419    0.6248 H    0  0  0  0  0  0  0  0  0  0  0  0
  1  2  1  0  0  0  0
  1  6  1  0  0  0  0
  1  7  1  0  0  0  0
  2  4  1  0  0  0  0
  2  8  1  0  0  0  0
  2  9  1  0  0  0  0
  3  1  1  0  0  0  0
  3 10  1  0  0  0  0
  3 11  1  0  0  0  0
  4  5  1  0  0  0  0
  4 12  1  0  0  0  0
  4 13  1  0  0  0  0
  5  3  1  0  0  0  0
  5 14  1  0  0  0  0
M  END
