  QUINALDINE.mol	91-63-4
  NIST    06201314153D 1   1.00000  -441.25207
Copyright by the U.S. Sec. Commerce on behalf of U.S.A. All rights reserved.
 20 21  0  0  0  0  0  0  0  0999 V2000
   -1.6004   -1.4202    1.5592 C    0  0  0  0  0  0  0  0  0  0  0  0
   -0.5667   -0.3345    1.7356 C    0  0  0  0  0  0  0  0  0  0  0  0
   -1.1726   -2.6185    1.2086 N    0  0  0  0  0  0  0  0  0  0  0  0
   -2.9815   -1.1281    1.7715 C    0  0  0  0  0  0  0  0  0  0  0  0
   -2.0888   -3.6194    1.0425 C    0  0  0  0  0  0  0  0  0  0  0  0
   -3.9148   -2.1196    1.6092 C    0  0  0  0  0  0  0  0  0  0  0  0
   -3.4921   -3.4215    1.2327 C    0  0  0  0  0  0  0  0  0  0  0  0
   -1.6227   -4.9059    0.6660 C    0  0  0  0  0  0  0  0  0  0  0  0
   -4.3808   -4.5102    1.0411 C    0  0  0  0  0  0  0  0  0  0  0  0
   -2.5089   -5.9455    0.4870 C    0  0  0  0  0  0  0  0  0  0  0  0
   -3.8989   -5.7479    0.6754 C    0  0  0  0  0  0  0  0  0  0  0  0
   -0.5871    0.0692    2.7559 H    0  0  0  0  0  0  0  0  0  0  0  0
    0.4282   -0.7365    1.5346 H    0  0  0  0  0  0  0  0  0  0  0  0
   -0.7545    0.5053    1.0544 H    0  0  0  0  0  0  0  0  0  0  0  0
   -3.2779   -0.1230    2.0593 H    0  0  0  0  0  0  0  0  0  0  0  0
   -4.9737   -1.9242    1.7645 H    0  0  0  0  0  0  0  0  0  0  0  0
   -0.5535   -5.0332    0.5275 H    0  0  0  0  0  0  0  0  0  0  0  0
   -5.4470   -4.3515    1.1874 H    0  0  0  0  0  0  0  0  0  0  0  0
   -2.1431   -6.9274    0.1988 H    0  0  0  0  0  0  0  0  0  0  0  0
   -4.5844   -6.5784    0.5300 H    0  0  0  0  0  0  0  0  0  0  0  0
  1  2  1  0
  1  4  1  0
  4  6  2  0
  6  7  1  0
  7  9  2  0
  9 11  1  0
 11 10  2  0
 10  8  1  0
  8  5  2  0
  7  5  1  0
  5  3  1  0
  1  3  2  0
  2 12  1  0
  2 13  1  0
  2 14  1  0
  4 15  1  0
  6 16  1  0
  8 17  1  0
  9 18  1  0
 10 19  1  0
 11 20  1  0
M  END
