  SUCCINIC ACID.mol	110-15-6
  NIST    06301517073D 1   1.00000  -456.96217
Copyright by the U.S. Sec. Commerce on behalf of U.S.A. All rights reserved.
 14 13  0  0  0  0  0  0  0  0999 V2000
    3.1295    0.9973    1.7412 C    0  0  0  0  0  0  0  0  0  0  0  0
    3.9709    2.1003    1.1071 C    0  0  0  0  0  0  0  0  0  0  0  0
    1.6761    1.0868    1.3347 C    0  0  0  0  0  0  0  0  0  0  0  0
    5.4230    2.0149    1.5191 C    0  0  0  0  0  0  0  0  0  0  0  0
    0.9427    0.0979    1.9017 O    0  0  0  0  0  0  0  0  0  0  0  0
    1.1921    1.9200    0.6001 O    0  0  0  0  0  0  0  0  0  0  0  0
    6.1588    2.9964    0.9423 O    0  0  0  0  0  0  0  0  0  0  0  0
    5.9041    1.1906    2.2656 O    0  0  0  0  0  0  0  0  0  0  0  0
    3.1891    1.0343    2.8350 H    0  0  0  0  0  0  0  0  0  0  0  0
    3.5080    0.0053    1.4692 H    0  0  0  0  0  0  0  0  0  0  0  0
    3.5894    3.0920    1.3762 H    0  0  0  0  0  0  0  0  0  0  0  0
    3.9151    2.0612    0.0132 H    0  0  0  0  0  0  0  0  0  0  0  0
    0.0269    0.2286    1.5909 H    0  0  0  0  0  0  0  0  0  0  0  0
    7.0733    2.8695    1.2584 H    0  0  0  0  0  0  0  0  0  0  0  0
  1  2  1  0  0  0  0
  1  3  1  0  0  0  0
  1  9  1  0  0  0  0
  1 10  1  0  0  0  0
  2  4  1  0  0  0  0
  2 11  1  0  0  0  0
  2 12  1  0  0  0  0
  3  5  1  0  0  0  0
  3  6  2  0  0  0  0
  4  7  1  0  0  0  0
  4  8  2  0  0  0  0
  5 13  1  0  0  0  0
  7 14  1  0  0  0  0
M  END
