  SUCCINIC ANHYDRIDE.mol	108-30-5
  NIST    06301516413D 1   1.00000  -380.52308
Copyright by the U.S. Sec. Commerce on behalf of U.S.A. All rights reserved.
 11 11  0  0  0  0  0  0  0  0999 V2000
    0.9172    1.0530    1.1118 C    0  0  0  0  0  0  0  0  0  0  0  0
    0.6748    1.5064    2.5533 C    0  0  0  0  0  0  0  0  0  0  0  0
    2.4183    1.2063    0.9063 C    0  0  0  0  0  0  0  0  0  0  0  0
    2.0580    1.8573    3.0851 C    0  0  0  0  0  0  0  0  0  0  0  0
    3.0013    1.6654    2.0820 O    0  0  0  0  0  0  0  0  0  0  0  0
    2.3676    2.2454    4.1727 O    0  0  0  0  0  0  0  0  0  0  0  0
    3.0682    0.9851   -0.0725 O    0  0  0  0  0  0  0  0  0  0  0  0
    0.6460    0.0090    0.9270 H    0  0  0  0  0  0  0  0  0  0  0  0
    0.3973    1.6567    0.3621 H    0  0  0  0  0  0  0  0  0  0  0  0
    0.2377    0.7354    3.1947 H    0  0  0  0  0  0  0  0  0  0  0  0
    0.0363    2.3914    2.6355 H    0  0  0  0  0  0  0  0  0  0  0  0
  1  2  1  0  0  0  0
  1  8  1  0  0  0  0
  1  9  1  0  0  0  0
  2  4  1  0  0  0  0
  2 10  1  0  0  0  0
  2 11  1  0  0  0  0
  3  1  1  0  0  0  0
  3  7  2  0  0  0  0
  4  5  1  0  0  0  0
  4  6  2  0  0  0  0
  5  3  1  0  0  0  0
M  END
