
 OpenBabel09271909353D

 14 13  0  0  0  0  0  0  0  0999 V2000
    3.1011    0.9907    1.6959 C   0  0  0  0  0  0  0  0  0  0  0  0
    4.0231    2.0631    1.1048 C   0  0  0  0  0  0  0  0  0  0  0  0
    1.6879    1.1755    1.2234 C   0  0  0  0  0  0  0  0  0  0  0  0
    5.4383    1.8714    1.5681 C   0  0  0  0  0  0  0  0  0  0  0  0
    1.0827    0.1984    0.5154 O   0  0  0  0  0  0  0  0  0  0  0  0
    1.0831    2.2046    1.4867 O   0  0  0  0  0  0  0  0  0  0  0  0
    6.4157    1.6410    0.6659 O   0  0  0  0  0  0  0  0  0  0  0  0
    5.7072    1.9328    2.7590 O   0  0  0  0  0  0  0  0  0  0  0  0
    3.1164    1.0434    2.8063 H   0  0  0  0  0  0  0  0  0  0  0  0
    3.4629   -0.0138    1.3844 H   0  0  0  0  0  0  0  0  0  0  0  0
    3.6798    3.0745    1.4134 H   0  0  0  0  0  0  0  0  0  0  0  0
    3.9897    2.0015   -0.0052 H   0  0  0  0  0  0  0  0  0  0  0  0
    0.1715    0.2968    0.2045 H   0  0  0  0  0  0  0  0  0  0  0  0
    7.3344    1.5180    0.9439 H   0  0  0  0  0  0  0  0  0  0  0  0
  1  2  1  0  0  0  0
  1  3  1  0  0  0  0
  1  9  1  0  0  0  0
  1 10  1  0  0  0  0
  2  4  1  0  0  0  0
  2 11  1  0  0  0  0
  2 12  1  0  0  0  0
  3  5  1  0  0  0  0
  3  6  2  0  0  0  0
  4  7  1  0  0  0  0
  4  8  2  0  0  0  0
  5 13  1  0  0  0  0
  7 14  1  0  0  0  0
M  END
