  TEREPHTHALIC ACID.mol	100-21-0
  NIST    07011511013D 1   1.00000  -609.39362
Copyright by the U.S. Sec. Commerce on behalf of U.S.A. All rights reserved.
 18 18  0  0  0  0  0  0  0  0999 V2000
    0.9998    3.2785    0.5062 O    0  0  0  0  0  0  0  0  0  0  0  0
    1.5886    2.0674    0.3413 C    0  0  0  0  0  0  0  0  0  0  0  0
    0.9447    1.0451    0.2205 O    0  0  0  0  0  0  0  0  0  0  0  0
    3.0764    2.1415    0.3265 C    0  0  0  0  0  0  0  0  0  0  0  0
    3.7651    3.3546    0.4707 C    0  0  0  0  0  0  0  0  0  0  0  0
    3.7888    0.9462    0.1616 C    0  0  0  0  0  0  0  0  0  0  0  0
    5.1553    3.3668    0.4495 C    0  0  0  0  0  0  0  0  0  0  0  0
    5.1790    0.9584    0.1404 C    0  0  0  0  0  0  0  0  0  0  0  0
    5.8678    2.1715    0.2846 C    0  0  0  0  0  0  0  0  0  0  0  0
    7.3555    2.2456    0.2699 C    0  0  0  0  0  0  0  0  0  0  0  0
    7.9443    1.0345    0.1052 O    0  0  0  0  0  0  0  0  0  0  0  0
    7.9994    3.2680    0.3903 O    0  0  0  0  0  0  0  0  0  0  0  0
    0.0394    3.1095    0.4999 H    0  0  0  0  0  0  0  0  0  0  0  0
    3.2100    4.2770    0.5982 H    0  0  0  0  0  0  0  0  0  0  0  0
    3.2347    0.0202    0.0517 H    0  0  0  0  0  0  0  0  0  0  0  0
    5.7094    4.2929    0.5594 H    0  0  0  0  0  0  0  0  0  0  0  0
    5.7341    0.0360    0.0130 H    0  0  0  0  0  0  0  0  0  0  0  0
    8.9047    1.2035    0.1114 H    0  0  0  0  0  0  0  0  0  0  0  0
  1  2  1  0  0  0  0
  1 13  1  0  0  0  0
  2  3  2  0  0  0  0
  2  4  1  0  0  0  0
  4  5  2  0  0  0  0
  5  7  1  0  0  0  0
  5 14  1  0  0  0  0
  6  4  1  0  0  0  0
  6 15  1  0  0  0  0
  7  9  2  0  0  0  0
  7 16  1  0  0  0  0
  8  6  2  0  0  0  0
  8 17  1  0  0  0  0
  9  8  1  0  0  0  0
  9 10  1  0  0  0  0
 10 11  1  0  0  0  0
 10 12  2  0  0  0  0
 11 18  1  0  0  0  0
M  END
