
 OpenBabel09301910583D

 18 18  0  0  0  0  0  0  0  0999 V2000
    1.4003    4.2957    0.1694 O   0  0  0  0  0  0  0  0  0  0  0  0
    2.5290    4.8704   -0.3009 C   0  0  0  0  0  0  0  0  0  0  0  0
    2.5004    6.0310   -0.6847 O   0  0  0  0  0  0  0  0  0  0  0  0
    3.7947    4.0965   -0.3508 C   0  0  0  0  0  0  0  0  0  0  0  0
    4.9748    4.6851   -0.8383 C   0  0  0  0  0  0  0  0  0  0  0  0
    3.8278    2.7629    0.0901 C   0  0  0  0  0  0  0  0  0  0  0  0
    6.1648    3.9531   -0.8837 C   0  0  0  0  0  0  0  0  0  0  0  0
    5.0180    2.0308    0.0448 C   0  0  0  0  0  0  0  0  0  0  0  0
    6.1976    2.6186   -0.4424 C   0  0  0  0  0  0  0  0  0  0  0  0
    7.4593    1.8380   -0.4889 C   0  0  0  0  0  0  0  0  0  0  0  0
    7.4803    0.5562   -0.0625 O   0  0  0  0  0  0  0  0  0  0  0  0
    8.4857    2.3498   -0.9130 O   0  0  0  0  0  0  0  0  0  0  0  0
    0.5671    4.7864    0.2085 H   0  0  0  0  0  0  0  0  0  0  0  0
    4.9760    5.7113   -1.1842 H   0  0  0  0  0  0  0  0  0  0  0  0
    2.9329    2.2862    0.4701 H   0  0  0  0  0  0  0  0  0  0  0  0
    7.0601    4.4295   -1.2636 H   0  0  0  0  0  0  0  0  0  0  0  0
    5.0164    1.0048    0.3906 H   0  0  0  0  0  0  0  0  0  0  0  0
    8.2945    0.0336   -0.0861 H   0  0  0  0  0  0  0  0  0  0  0  0
  1  2  1  0  0  0  0
  1 13  1  0  0  0  0
  2  3  2  0  0  0  0
  2  4  1  0  0  0  0
  4  5  2  0  0  0  0
  5  7  1  0  0  0  0
  5 14  1  0  0  0  0
  6  4  1  0  0  0  0
  6 15  1  0  0  0  0
  7  9  2  0  0  0  0
  7 16  1  0  0  0  0
  8  6  2  0  0  0  0
  8 17  1  0  0  0  0
  9  8  1  0  0  0  0
  9 10  1  0  0  0  0
 10 11  1  0  0  0  0
 10 12  2  0  0  0  0
 11 18  1  0  0  0  0
M  END
