  TERT-BUTYL ACETATE.mol	540-88-5
  NIST    07221319133D 1   1.00000  -386.33898
Copyright by the U.S. Sec. Commerce on behalf of U.S.A. All rights reserved.
 20 19  0  0  0  0  0  0  0  0999 V2000
    1.8466    1.2071    0.0167 O    0  0  0  0  0  0  0  0  0  0  0  0
    0.4877    0.6322    0.0293 C    0  0  0  0  0  0  0  0  0  0  0  0
    2.9473    0.4286   -0.0433 C    0  0  0  0  0  0  0  0  0  0  0  0
   -0.3998    1.8775    0.0993 C    0  0  0  0  0  0  0  0  0  0  0  0
    0.2341   -0.1436   -1.2677 C    0  0  0  0  0  0  0  0  0  0  0  0
    0.2997   -0.2401    1.2752 C    0  0  0  0  0  0  0  0  0  0  0  0
    4.1927    1.2911   -0.0385 C    0  0  0  0  0  0  0  0  0  0  0  0
    2.9541   -0.7837   -0.0930 O    0  0  0  0  0  0  0  0  0  0  0  0
   -1.4557    1.5874    0.1150 H    0  0  0  0  0  0  0  0  0  0  0  0
   -0.1853    2.4552    1.0043 H    0  0  0  0  0  0  0  0  0  0  0  0
   -0.2299    2.5224   -0.7689 H    0  0  0  0  0  0  0  0  0  0  0  0
   -0.8130   -0.4653   -1.3033 H    0  0  0  0  0  0  0  0  0  0  0  0
    0.8740   -1.0249   -1.3325 H    0  0  0  0  0  0  0  0  0  0  0  0
    0.4214    0.4965   -2.1370 H    0  0  0  0  0  0  0  0  0  0  0  0
    0.5367    0.3313    2.1794 H    0  0  0  0  0  0  0  0  0  0  0  0
   -0.7455   -0.5627    1.3427 H    0  0  0  0  0  0  0  0  0  0  0  0
    0.9372   -1.1249    1.2386 H    0  0  0  0  0  0  0  0  0  0  0  0
    4.1734    1.9880   -0.8827 H    0  0  0  0  0  0  0  0  0  0  0  0
    4.2321    1.8905    0.8772 H    0  0  0  0  0  0  0  0  0  0  0  0
    5.0751    0.6534   -0.1022 H    0  0  0  0  0  0  0  0  0  0  0  0
  1  2  1  0
  1  3  1  0
  2  4  1  0
  2  5  1  0
  2  6  1  0
  3  7  1  0
  3  8  2  0
  4  9  1  0
  4 10  1  0
  4 11  1  0
  5 12  1  0
  5 13  1  0
  5 14  1  0
  6 15  1  0
  6 16  1  0
  6 17  1  0
  7 18  1  0
  7 19  1  0
  7 20  1  0
M  END
