  TERT-BUTYLAMINE.mol	75-64-9
  NIST    07011509003D 1   1.00000  -213.80311
Copyright by the U.S. Sec. Commerce on behalf of U.S.A. All rights reserved.
 16 15  0  0  0  0  0  0  0  0999 V2000
    2.0014    3.0112    0.6905 C    0  0  0  0  0  0  0  0  0  0  0  0
    2.1509    2.0501    1.8801 C    0  0  0  0  0  0  0  0  0  0  0  0
    0.9371    2.1874    2.8239 C    0  0  0  0  0  0  0  0  0  0  0  0
    3.4468    2.3581    2.6460 C    0  0  0  0  0  0  0  0  0  0  0  0
    2.2834    0.6854    1.3264 N    0  0  0  0  0  0  0  0  0  0  0  0
    2.8528    2.9107    0.0097 H    0  0  0  0  0  0  0  0  0  0  0  0
    1.9422    4.0519    1.0287 H    0  0  0  0  0  0  0  0  0  0  0  0
    1.0870    2.7935    0.1230 H    0  0  0  0  0  0  0  0  0  0  0  0
    0.8470    3.2027    3.2303 H    0  0  0  0  0  0  0  0  0  0  0  0
    0.0039    1.9561    2.2944 H    0  0  0  0  0  0  0  0  0  0  0  0
    1.0238    1.4954    3.6714 H    0  0  0  0  0  0  0  0  0  0  0  0
    4.3139    2.2513    1.9864 H    0  0  0  0  0  0  0  0  0  0  0  0
    3.4342    3.3771    3.0491 H    0  0  0  0  0  0  0  0  0  0  0  0
    3.5760    1.6681    3.4900 H    0  0  0  0  0  0  0  0  0  0  0  0
    2.3586    0.0181    2.0956 H    0  0  0  0  0  0  0  0  0  0  0  0
    1.4237    0.4393    0.8336 H    0  0  0  0  0  0  0  0  0  0  0  0
  1  2  1  0  0  0  0
  1  6  1  0  0  0  0
  1  7  1  0  0  0  0
  1  8  1  0  0  0  0
  2  3  1  0  0  0  0
  2  4  1  0  0  0  0
  2  5  1  0  0  0  0
  3  9  1  0  0  0  0
  3 10  1  0  0  0  0
  3 11  1  0  0  0  0
  4 12  1  0  0  0  0
  4 13  1  0  0  0  0
  4 14  1  0  0  0  0
  5 15  1  0  0  0  0
  5 16  1  0  0  0  0
M  END
