  TERT-BUTYLFORMAMIDE.mol	2425-74-3
  NIST    08031215033D 1   1.00000  -327.14377
Copyright by the U.S. Sec. Commerce on behalf of U.S.A. All rights reserved.
 18 17  0  0  0  0  0  0  0  0999 V2000
   35.0527   26.9172   -0.0281 N    0  0  0  0  0  0  0  0  0  0  0  0
   33.7459   26.2257    0.0099 C    0  0  0  0  0  0  0  0  0  0  0  0
   36.2843   26.3414   -0.0910 C    0  0  0  0  0  0  0  0  0  0  0  0
   32.6715   27.3240    0.0342 C    0  0  0  0  0  0  0  0  0  0  0  0
   33.5662   25.3565   -1.2502 C    0  0  0  0  0  0  0  0  0  0  0  0
   33.6348   25.3610    1.2815 C    0  0  0  0  0  0  0  0  0  0  0  0
   37.3381   26.9569   -0.0815 O    0  0  0  0  0  0  0  0  0  0  0  0
   35.0655   27.9274    0.0546 H    0  0  0  0  0  0  0  0  0  0  0  0
   36.2435   25.2372   -0.1577 H    0  0  0  0  0  0  0  0  0  0  0  0
   31.6724   26.8780    0.0630 H    0  0  0  0  0  0  0  0  0  0  0  0
   32.7809   27.9618    0.9195 H    0  0  0  0  0  0  0  0  0  0  0  0
   32.7352   27.9557   -0.8595 H    0  0  0  0  0  0  0  0  0  0  0  0
   32.5784   24.8817   -1.2480 H    0  0  0  0  0  0  0  0  0  0  0  0
   34.3169   24.5608   -1.3013 H    0  0  0  0  0  0  0  0  0  0  0  0
   33.6558   25.9664   -2.1552 H    0  0  0  0  0  0  0  0  0  0  0  0
   33.7633   25.9758    2.1787 H    0  0  0  0  0  0  0  0  0  0  0  0
   32.6537   24.8749    1.3325 H    0  0  0  0  0  0  0  0  0  0  0  0
   34.3987   24.5761    1.2969 H    0  0  0  0  0  0  0  0  0  0  0  0
  1  2  1  0
  1  3  1  0
  2  4  1  0
  2  5  1  0
  2  6  1  0
  3  7  2  0
  1  8  1  0
  3  9  1  0
  4 10  1  0
  4 11  1  0
  4 12  1  0
  5 13  1  0
  5 14  1  0
  5 15  1  0
  6 16  1  0
  6 17  1  0
  6 18  1  0
M  END
