  TETRABROMOMETHANE.mol	558-13-4
  NIST    06161409523D 1   1.00000-10324.89631
Copyright by the U.S. Sec. Commerce on behalf of U.S.A. All rights reserved.
  5  4  0  0  0  0  0  0  0  0999 V2000
   20.0004   39.0066   -0.0001 Br   0  0  0  0  0  0  0  0  0  0  0  0
   20.0003   37.0510    0.0001 C    0  0  0  0  0  0  0  0  0  0  0  0
   21.8435   36.3987   -0.0001 Br   0  0  0  0  0  0  0  0  0  0  0  0
   19.0785   36.3997    1.5973 Br   0  0  0  0  0  0  0  0  0  0  0  0
   19.0778   36.3992   -1.5964 Br   0  0  0  0  0  0  0  0  0  0  0  0
  1  2  1  0
  2  3  1  0
  2  4  1  0
  2  5  1  0
M  END
