
 OpenBabel06071909323D

 13 13  0  0  0  0  0  0  0  0999 V2000
    0.7485    2.1427    0.9321 C   0  0  0  0  0  0  0  0  0  0  0  0
    1.8610    2.9565    1.5074 C   0  0  0  0  0  0  0  0  0  0  0  0
    3.0347    2.2028    0.9091 C   0  0  0  0  0  0  0  0  0  0  0  0
    2.7083    0.8250    0.9452 O   0  0  0  0  0  0  0  0  0  0  0  0
    1.3148    0.7584    1.1900 C   0  0  0  0  0  0  0  0  0  0  0  0
   -0.2544    2.3229    1.3739 H   0  0  0  0  0  0  0  0  0  0  0  0
    0.7011    2.3223   -0.1673 H   0  0  0  0  0  0  0  0  0  0  0  0
    1.8352    4.0405    1.2667 H   0  0  0  0  0  0  0  0  0  0  0  0
    1.8668    2.8281    2.6149 H   0  0  0  0  0  0  0  0  0  0  0  0
    3.1629    2.4918   -0.1586 H   0  0  0  0  0  0  0  0  0  0  0  0
    3.9708    2.4256    1.4633 H   0  0  0  0  0  0  0  0  0  0  0  0
    0.8134    0.0014    0.5508 H   0  0  0  0  0  0  0  0  0  0  0  0
    1.1723    0.4869    2.2605 H   0  0  0  0  0  0  0  0  0  0  0  0
  1  2  1  0  0  0  0
  1  6  1  0  0  0  0
  1  7  1  0  0  0  0
  2  3  1  0  0  0  0
  2  8  1  0  0  0  0
  2  9  1  0  0  0  0
  3  4  1  0  0  0  0
  3 10  1  0  0  0  0
  3 11  1  0  0  0  0
  4  5  1  0  0  0  0
  5  1  1  0  0  0  0
  5 12  1  0  0  0  0
  5 13  1  0  0  0  0
M  END
