  TETRAFLUOROMETHANE.mol	75-73-0
  NIST    07011508023D 1   1.00000  -437.47627
Copyright by the U.S. Sec. Commerce on behalf of U.S.A. All rights reserved.
  5  4  0  0  0  0  0  0  0  0999 V2000
    1.3060    0.0068    0.2454 F    0  0  0  0  0  0  0  0  0  0  0  0
    1.0931    1.2665    0.6132 C    0  0  0  0  0  0  0  0  0  0  0  0
    0.9190    1.3205    1.9299 F    0  0  0  0  0  0  0  0  0  0  0  0
    0.0059    1.7286    0.0035 F    0  0  0  0  0  0  0  0  0  0  0  0
    2.1413    2.0105    0.2744 F    0  0  0  0  0  0  0  0  0  0  0  0
  1  2  1  0  0  0  0
  2  3  1  0  0  0  0
  2  4  1  0  0  0  0
  2  5  1  0  0  0  0
M  END
