  THIAZOLE.mol	288-47-1
  NIST    08031215043D 1   1.00000  -569.04705
Copyright by the U.S. Sec. Commerce on behalf of U.S.A. All rights reserved.
  8  8  0  0  0  0  0  0  0  0999 V2000
    7.9865    2.0932   -0.1493 C    0  0  0  0  0  0  0  0  0  0  0  0
    9.0639    1.0536    0.7569 S    0  0  0  0  0  0  0  0  0  0  0  0
    6.7813    1.6348   -0.3132 N    0  0  0  0  0  0  0  0  0  0  0  0
    7.7625   -0.0812    0.9154 C    0  0  0  0  0  0  0  0  0  0  0  0
    6.6501    0.4026    0.2887 C    0  0  0  0  0  0  0  0  0  0  0  0
    8.3330    3.0460   -0.5325 H    0  0  0  0  0  0  0  0  0  0  0  0
    7.8879   -1.0144    1.4464 H    0  0  0  0  0  0  0  0  0  0  0  0
    5.6959   -0.1095    0.2371 H    0  0  0  0  0  0  0  0  0  0  0  0
  5  4  2  0
  4  2  1  0
  2  1  1  0
  1  3  2  0
  5  3  1  0
  1  6  1  0
  4  7  1  0
  5  8  1  0
M  END
