  THIACYCLOPENTANE.mol	110-01-0
  NIST    06301517043D 1   1.00000  -555.43661
Copyright by the U.S. Sec. Commerce on behalf of U.S.A. All rights reserved.
 13 13  0  0  0  0  0  0  0  0999 V2000
    1.7888    2.8279    2.5248 C    0  0  0  0  0  0  0  0  0  0  0  0
    0.6623    1.9443    1.9738 C    0  0  0  0  0  0  0  0  0  0  0  0
    2.9092    1.8841    2.9792 C    0  0  0  0  0  0  0  0  0  0  0  0
    1.3139    0.9501    1.0045 C    0  0  0  0  0  0  0  0  0  0  0  0
    2.9519    0.4984    1.7479 S    0  0  0  0  0  0  0  0  0  0  0  0
    1.4485    3.4618    3.3525 H    0  0  0  0  0  0  0  0  0  0  0  0
    2.1608    3.4890    1.7320 H    0  0  0  0  0  0  0  0  0  0  0  0
   -0.1145    2.5326    1.4709 H    0  0  0  0  0  0  0  0  0  0  0  0
    0.1849    1.3986    2.7973 H    0  0  0  0  0  0  0  0  0  0  0  0
    2.7043    1.4737    3.9730 H    0  0  0  0  0  0  0  0  0  0  0  0
    3.8867    2.3728    3.0021 H    0  0  0  0  0  0  0  0  0  0  0  0
    1.4797    1.4033    0.0221 H    0  0  0  0  0  0  0  0  0  0  0  0
    0.7195    0.0427    0.8707 H    0  0  0  0  0  0  0  0  0  0  0  0
  1  3  1  0  0  0  0
  1  6  1  0  0  0  0
  1  7  1  0  0  0  0
  2  1  1  0  0  0  0
  2  8  1  0  0  0  0
  2  9  1  0  0  0  0
  3  5  1  0  0  0  0
  3 10  1  0  0  0  0
  3 11  1  0  0  0  0
  4  2  1  0  0  0  0
  4 12  1  0  0  0  0
  4 13  1  0  0  0  0
  5  4  1  0  0  0  0
M  END
