
 OpenBabel11291909153D

 16 16  0  0  0  0  0  0  0  0999 V2000
   -8.1816   -0.2273   -0.2256 C   0  0  0  0  0  0  0  0  0  0  0  0
   -7.0913    0.7179    0.2896 C   0  0  0  0  0  0  0  0  0  0  0  0
   -5.6975    0.2495   -0.1304 C   0  0  0  0  0  0  0  0  0  0  0  0
   -7.1432    0.7917    1.3980 H   0  0  0  0  0  0  0  0  0  0  0  0
   -7.2722    1.7291   -0.1346 H   0  0  0  0  0  0  0  0  0  0  0  0
   -5.2801   -1.3537    0.6348 S   0  0  0  0  0  0  0  0  0  0  0  0
   -4.9546    0.9931    0.2272 H   0  0  0  0  0  0  0  0  0  0  0  0
   -5.6013    0.1852   -1.2356 H   0  0  0  0  0  0  0  0  0  0  0  0
   -8.0194   -1.6502    0.3191 C   0  0  0  0  0  0  0  0  0  0  0  0
   -8.1556   -0.2513   -1.3376 H   0  0  0  0  0  0  0  0  0  0  0  0
   -9.1735    0.1653    0.0859 H   0  0  0  0  0  0  0  0  0  0  0  0
   -6.6821   -2.2626   -0.0992 C   0  0  0  0  0  0  0  0  0  0  0  0
   -8.8427   -2.2781   -0.0847 H   0  0  0  0  0  0  0  0  0  0  0  0
   -8.0983   -1.6451    1.4283 H   0  0  0  0  0  0  0  0  0  0  0  0
   -6.5771   -2.3046   -1.2046 H   0  0  0  0  0  0  0  0  0  0  0  0
   -6.6391   -3.3050    0.2806 H   0  0  0  0  0  0  0  0  0  0  0  0
  1  2  1  0  0  0  0
  1  9  1  0  0  0  0
  1 10  1  0  0  0  0
  1 11  1  0  0  0  0
  2  3  1  0  0  0  0
  2  4  1  0  0  0  0
  2  5  1  0  0  0  0
  3  6  1  0  0  0  0
  3  7  1  0  0  0  0
  3  8  1  0  0  0  0
  6 12  1  0  0  0  0
  9 12  1  0  0  0  0
  9 13  1  0  0  0  0
  9 14  1  0  0  0  0
 12 15  1  0  0  0  0
 12 16  1  0  0  0  0
M  END
