  THIACYCLOPROPANE.mol	420-12-2
  NIST    06301516283D 1   1.00000  -476.78349
Copyright by the U.S. Sec. Commerce on behalf of U.S.A. All rights reserved.
  7  7  0  0  0  0  0  0  0  0999 V2000
    2.0231    0.3265    0.8871 C    0  0  0  0  0  0  0  0  0  0  0  0
    0.5411    0.3432    0.8871 C    0  0  0  0  0  0  0  0  0  0  0  0
    1.3011    2.0158    0.8552 S    0  0  0  0  0  0  0  0  0  0  0  0
    2.5368    0.0598    1.8073 H    0  0  0  0  0  0  0  0  0  0  0  0
    2.5364    0.0250   -0.0225 H    0  0  0  0  0  0  0  0  0  0  0  0
    0.0210    0.0535   -0.0225 H    0  0  0  0  0  0  0  0  0  0  0  0
    0.0214    0.0883    1.8073 H    0  0  0  0  0  0  0  0  0  0  0  0
  1  2  1  0  0  0  0
  1  4  1  0  0  0  0
  1  5  1  0  0  0  0
  2  3  1  0  0  0  0
  2  6  1  0  0  0  0
  2  7  1  0  0  0  0
  3  1  1  0  0  0  0
M  END
