  THIOPHENE.mol	110-02-1
  NIST    06301516333D 1   1.00000  -553.00263
Copyright by the U.S. Sec. Commerce on behalf of U.S.A. All rights reserved.
  9  9  0  0  0  0  0  0  0  0999 V2000
    2.9902    0.1387    0.9040 C    0  0  0  0  0  0  0  0  0  0  0  0
    1.5605    0.1288    0.9215 C    0  0  0  0  0  0  0  0  0  0  0  0
    3.5331    0.3161    2.1465 C    0  0  0  0  0  0  0  0  0  0  0  0
    1.0458    0.2989    2.1769 C    0  0  0  0  0  0  0  0  0  0  0  0
    2.3030    0.4738    3.3608 S    0  0  0  0  0  0  0  0  0  0  0  0
    3.5856    0.0190    0.0051 H    0  0  0  0  0  0  0  0  0  0  0  0
    0.9450    0.0008    0.0375 H    0  0  0  0  0  0  0  0  0  0  0  0
    4.5776    0.3638    2.4233 H    0  0  0  0  0  0  0  0  0  0  0  0
    0.0078    0.3321    2.4793 H    0  0  0  0  0  0  0  0  0  0  0  0
  1  2  1  0  0  0  0
  1  6  1  0  0  0  0
  2  4  2  0  0  0  0
  2  7  1  0  0  0  0
  3  1  2  0  0  0  0
  3  8  1  0  0  0  0
  4  5  1  0  0  0  0
  4  9  1  0  0  0  0
  5  3  1  0  0  0  0
M  END
