  TOLUENEDIAMINE.mol	95-80-7
  NIST    06201314153D 1   1.00000  -382.27236
Copyright by the U.S. Sec. Commerce on behalf of U.S.A. All rights reserved.
 19 19  0  0  0  0  0  0  0  0999 V2000
    7.2830    3.0290   -0.9549 C    0  0  0  0  0  0  0  0  0  0  0  0
    6.3623    1.8663   -0.6779 C    0  0  0  0  0  0  0  0  0  0  0  0
    6.8560    0.6005   -0.3567 C    0  0  0  0  0  0  0  0  0  0  0  0
    4.9590    2.0292   -0.7235 C    0  0  0  0  0  0  0  0  0  0  0  0
    6.0251   -0.4826   -0.0791 C    0  0  0  0  0  0  0  0  0  0  0  0
    4.6332   -0.3136   -0.1209 C    0  0  0  0  0  0  0  0  0  0  0  0
    3.7713   -1.3998    0.0953 N    0  0  0  0  0  0  0  0  0  0  0  0
    4.1152    0.9462   -0.4475 C    0  0  0  0  0  0  0  0  0  0  0  0
    4.4093    3.2935   -0.9829 N    0  0  0  0  0  0  0  0  0  0  0  0
    8.3297    2.7361   -0.8265 H    0  0  0  0  0  0  0  0  0  0  0  0
    7.1829    3.4108   -1.9833 H    0  0  0  0  0  0  0  0  0  0  0  0
    7.0883    3.8750   -0.2815 H    0  0  0  0  0  0  0  0  0  0  0  0
    7.9343    0.4588   -0.3177 H    0  0  0  0  0  0  0  0  0  0  0  0
    6.4493   -1.4536    0.1645 H    0  0  0  0  0  0  0  0  0  0  0  0
    2.8554   -1.1408    0.4430 H    0  0  0  0  0  0  0  0  0  0  0  0
    4.1731   -2.1357    0.6641 H    0  0  0  0  0  0  0  0  0  0  0  0
    3.0359    1.0873   -0.4901 H    0  0  0  0  0  0  0  0  0  0  0  0
    4.9697    3.8819   -1.5873 H    0  0  0  0  0  0  0  0  0  0  0  0
    3.4466    3.2692   -1.2976 H    0  0  0  0  0  0  0  0  0  0  0  0
  1  2  1  0
  4  9  1  0
  6  7  1  0
  2  3  1  0
  3  5  2  0
  5  6  1  0
  6  8  2  0
  8  4  1  0
  2  4  2  0
  1 10  1  0
  1 11  1  0
  1 12  1  0
  3 13  1  0
  5 14  1  0
  7 15  1  0
  7 16  1  0
  8 17  1  0
  9 18  1  0
  9 19  1  0
M  END
