  TRANS-1,2-DIMETHYLCYCLOBUTANE.mol	15679-02-4
  NIST    06121414513D 1   1.00000  -235.84721
Copyright by the U.S. Sec. Commerce on behalf of U.S.A. All rights reserved.
 18 18  0  0  0  0  0  0  0  0999 V2000
    0.6185    1.5416   -0.2717 C    0  0  0  0  0  0  0  0  0  0  0  0
    0.5655    0.0084   -0.0209 C    0  0  0  0  0  0  0  0  0  0  0  0
    2.1243    0.0084    0.0209 C    0  0  0  0  0  0  0  0  0  0  0  0
    2.0713    1.5416    0.2717 C    0  0  0  0  0  0  0  0  0  0  0  0
   -0.1554   -0.8889   -1.0180 C    0  0  0  0  0  0  0  0  0  0  0  0
    2.8452   -0.8889    1.0180 C    0  0  0  0  0  0  0  0  0  0  0  0
   -0.1208    2.1688    0.2376 H    0  0  0  0  0  0  0  0  0  0  0  0
    0.5874    1.7708   -1.3439 H    0  0  0  0  0  0  0  0  0  0  0  0
    0.1831   -0.1808    0.9926 H    0  0  0  0  0  0  0  0  0  0  0  0
    2.5067   -0.1808   -0.9926 H    0  0  0  0  0  0  0  0  0  0  0  0
    2.8106    2.1688   -0.2377 H    0  0  0  0  0  0  0  0  0  0  0  0
    2.1024    1.7708    1.3439 H    0  0  0  0  0  0  0  0  0  0  0  0
   -1.2372   -0.7052   -1.0129 H    0  0  0  0  0  0  0  0  0  0  0  0
    0.0008   -1.9506   -0.7880 H    0  0  0  0  0  0  0  0  0  0  0  0
    0.2071   -0.7119   -2.0387 H    0  0  0  0  0  0  0  0  0  0  0  0
    3.9270   -0.7052    1.0129 H    0  0  0  0  0  0  0  0  0  0  0  0
    2.6890   -1.9506    0.7880 H    0  0  0  0  0  0  0  0  0  0  0  0
    2.4827   -0.7119    2.0387 H    0  0  0  0  0  0  0  0  0  0  0  0
  3  2  1  0
  4  3  1  0
  1  4  1  0
  2  5  1  0
  2  1  1  0
  3  6  1  0
  1  7  1  0
  1  8  1  0
  2  9  1  0
  3 10  1  0
  4 11  1  0
  4 12  1  0
  5 13  1  0
  5 14  1  0
  5 15  1  0
  6 16  1  0
  6 17  1  0
  6 18  1  0
M  END
