  TRANS-1-METHYL-3-ETHYLCYCLOHEXANE.mol	4926-76-5
  NIST    08091210383D 1   1.00000  -353.81942
Copyright by the U.S. Sec. Commerce on behalf of U.S.A. All rights reserved.
 27 27  0  0  0  0  0  0  0  0999 V2000
   -0.0660    1.6417    0.0131 C    0  0  0  0  0  0  0  0  0  0  0  0
    0.1144    3.1663   -0.0343 C    0  0  0  0  0  0  0  0  0  0  0  0
    1.2816    0.8970    0.0234 C    0  0  0  0  0  0  0  0  0  0  0  0
    0.9891    3.5925   -1.2241 C    0  0  0  0  0  0  0  0  0  0  0  0
    2.3606    2.8800   -1.2433 C    0  0  0  0  0  0  0  0  0  0  0  0
    2.1458    1.3513   -1.1691 C    0  0  0  0  0  0  0  0  0  0  0  0
    3.3382    3.3835   -0.1580 C    0  0  0  0  0  0  0  0  0  0  0  0
    1.0877   -0.6238    0.0248 C    0  0  0  0  0  0  0  0  0  0  0  0
    3.7951    4.8356   -0.3435 C    0  0  0  0  0  0  0  0  0  0  0  0
   -0.6603    1.3551    0.8915 H    0  0  0  0  0  0  0  0  0  0  0  0
   -0.6408    1.3188   -0.8693 H    0  0  0  0  0  0  0  0  0  0  0  0
   -0.8642    3.6596   -0.0976 H    0  0  0  0  0  0  0  0  0  0  0  0
    0.5680    3.5089    0.9063 H    0  0  0  0  0  0  0  0  0  0  0  0
    1.8067    1.1676    0.9525 H    0  0  0  0  0  0  0  0  0  0  0  0
    1.1180    4.6818   -1.2293 H    0  0  0  0  0  0  0  0  0  0  0  0
    0.4580    3.3448   -2.1549 H    0  0  0  0  0  0  0  0  0  0  0  0
    2.8343    3.0965   -2.2132 H    0  0  0  0  0  0  0  0  0  0  0  0
    3.1184    0.8403   -1.1391 H    0  0  0  0  0  0  0  0  0  0  0  0
    1.6526    1.0192   -2.0960 H    0  0  0  0  0  0  0  0  0  0  0  0
    2.8969    3.2697    0.8408 H    0  0  0  0  0  0  0  0  0  0  0  0
    4.2236    2.7320   -0.1685 H    0  0  0  0  0  0  0  0  0  0  0  0
    2.0500   -1.1488    0.0651 H    0  0  0  0  0  0  0  0  0  0  0  0
    0.4919   -0.9491    0.8864 H    0  0  0  0  0  0  0  0  0  0  0  0
    0.5669   -0.9543   -0.8835 H    0  0  0  0  0  0  0  0  0  0  0  0
    4.5382    5.1125    0.4131 H    0  0  0  0  0  0  0  0  0  0  0  0
    4.2540    4.9824   -1.3294 H    0  0  0  0  0  0  0  0  0  0  0  0
    2.9628    5.5433   -0.2579 H    0  0  0  0  0  0  0  0  0  0  0  0
  1  2  1  0
  3  1  1  0
  2  4  1  0
  6  3  1  0
  3  8  1  0
  4  5  1  0
  5  6  1  0
  5  7  1  0
  7  9  1  0
  1 10  1  0
  1 11  1  0
  2 12  1  0
  2 13  1  0
  3 14  1  0
  4 15  1  0
  4 16  1  0
  5 17  1  0
  6 18  1  0
  6 19  1  0
  7 20  1  0
  7 21  1  0
  8 22  1  0
  8 23  1  0
  8 24  1  0
  9 25  1  0
  9 26  1  0
  9 27  1  0
M  END
