  TRANS-3-METHYLCYCLOHEXANOL.mol	7443-55-2
  NIST    07301310173D 1   1.00000  -350.40163
Copyright by the U.S. Sec. Commerce on behalf of U.S.A. All rights reserved.
 22 22 0  0  0  0  0  0  0  0999 V2000
    2.4957    2.6038   -0.1060 C    0  0  0  0  0  0  0  0  0  0  0  0
    0.9598    2.6298   -0.0886 C    0  0  0  0  0  0  0  0  0  0  0  0
    3.0353    1.1728    0.0549 C    0  0  0  0  0  0  0  0  0  0  0  0
    0.4078    1.9767    1.1773 C    0  0  0  0  0  0  0  0  0  0  0  0
    0.9483    0.5478    1.3363 C    0  0  0  0  0  0  0  0  0  0  0  0
    3.1333    0.9908    2.6106 C    0  0  0  0  0  0  0  0  0  0  0  0
    2.4915    0.4637    1.3155 C    0  0  0  0  0  0  0  0  0  0  0  0
   -1.0171    1.9864    1.0679 O    0  0  0  0  0  0  0  0  0  0  0  0
    2.8648    3.0367   -1.0441 H    0  0  0  0  0  0  0  0  0  0  0  0
    2.8840    3.2447    0.6979 H    0  0  0  0  0  0  0  0  0  0  0  0
    0.5801    3.6555   -0.1650 H    0  0  0  0  0  0  0  0  0  0  0  0
    0.5651    2.0786   -0.9539 H    0  0  0  0  0  0  0  0  0  0  0  0
    4.1331    1.1808    0.0762 H    0  0  0  0  0  0  0  0  0  0  0  0
    2.7449    0.5878   -0.8296 H    0  0  0  0  0  0  0  0  0  0  0  0
    0.7131    2.5839    2.0469 H    0  0  0  0  0  0  0  0  0  0  0  0
    0.5616    0.1058    2.2673 H    0  0  0  0  0  0  0  0  0  0  0  0
    0.5369   -0.0479    0.5097 H    0  0  0  0  0  0  0  0  0  0  0  0
    4.2203    0.8475    2.5903 H    0  0  0  0  0  0  0  0  0  0  0  0
    2.9472    2.0586    2.7689 H    0  0  0  0  0  0  0  0  0  0  0  0
    2.7438    0.4564    3.4857 H    0  0  0  0  0  0  0  0  0  0  0  0
    2.7585   -0.5999    1.2398 H    0  0  0  0  0  0  0  0  0  0  0  0
   -1.3735    1.5548    1.8603 H    0  0  0  0  0  0  0  0  0  0  0  0
  1  3  1  0     0  0
  1  9  1  0     0  0
  1 10  1  0     0  0
  2  1  1  0     0  0
  2 11  1  0     0  0
  2 12  1  0     0  0
  3  7  1  0     0  0
  3 13  1  0     0  0
  3 14  1  0     0  0
  4  2  1  0     0  0
  4  8  1  0     0  0
  4 15  1  0     0  0
  5  4  1  0     0  0
  5 16  1  0     0  0
  5 17  1  0     0  0
  6 18  1  0     0  0
  6 19  1  0     0  0
  6 20  1  0     0  0
  7  5  1  0     0  0
  7  6  1  0     0  0
  7 21  1  0     0  0
  8 22  1  0     0  0
M  END
