  TRANS-1,2-DIMETHYLCYCLOPENTANE.mol	822-50-4
  NIST    06301520163D 1   1.00000  -275.18762
Copyright by the U.S. Sec. Commerce on behalf of U.S.A. All rights reserved.
 21 21  0  0  1  0  0  0  0  0999 V2000
    4.5718    2.5779    1.6735 C    0  0  0  0  0  0  0  0  0  0  0  0
    3.1773    2.8830    1.1258 C    0  0  0  0  0  0  0  0  0  0  0  0
    2.0356    2.0189    1.7073 C    0  0  0  0  0  0  0  0  0  0  0  0
    2.6951    4.3223    1.4015 C    0  0  0  0  0  0  0  0  0  0  0  0
    2.0564    0.5458    1.2978 C    0  0  0  0  0  0  0  0  0  0  0  0
    0.7666    2.7755    1.2611 C    0  0  0  0  0  0  0  0  0  0  0  0
    1.1486    4.2818    1.2646 C    0  0  0  0  0  0  0  0  0  0  0  0
    5.3233    3.2528    1.2460 H    0  0  0  0  0  0  0  0  0  0  0  0
    4.8843    1.5521    1.4452 H    0  0  0  0  0  0  0  0  0  0  0  0
    4.5983    2.7009    2.7643 H    0  0  0  0  0  0  0  0  0  0  0  0
    3.1866    2.7233    0.0348 H    0  0  0  0  0  0  0  0  0  0  0  0
    2.1072    2.0778    2.8060 H    0  0  0  0  0  0  0  0  0  0  0  0
    3.1631    5.0546    0.7339 H    0  0  0  0  0  0  0  0  0  0  0  0
    2.9776    4.6041    2.4252 H    0  0  0  0  0  0  0  0  0  0  0  0
    1.2009    0.0041    1.7190 H    0  0  0  0  0  0  0  0  0  0  0  0
    2.9667    0.0403    1.6411 H    0  0  0  0  0  0  0  0  0  0  0  0
    2.0080    0.4438    0.2056 H    0  0  0  0  0  0  0  0  0  0  0  0
   -0.0969    2.5536    1.8983 H    0  0  0  0  0  0  0  0  0  0  0  0
    0.4983    2.4552    0.2450 H    0  0  0  0  0  0  0  0  0  0  0  0
    0.8150    4.7711    0.3431 H    0  0  0  0  0  0  0  0  0  0  0  0
    0.6680    4.8168    2.0909 H    0  0  0  0  0  0  0  0  0  0  0  0
  1  2  1  0  0  0  0
  1  8  1  0  0  0  0
  1  9  1  0  0  0  0
  1 10  1  0  0  0  0
  2  3  1  0  0  0  0
  2 11  1  6  0  0  0
  3  5  1  0  0  0  0
  3  6  1  0  0  0  0
  3 12  1  1  0  0  0
  4  2  1  0  0  0  0
  4 13  1  0  0  0  0
  4 14  1  0  0  0  0
  5 15  1  0  0  0  0
  5 16  1  0  0  0  0
  5 17  1  0  0  0  0
  6  7  1  0  0  0  0
  6 18  1  0  0  0  0
  6 19  1  0  0  0  0
  7  4  1  0  0  0  0
  7 20  1  0  0  0  0
  7 21  1  0  0  0  0
M  END
