  TRIBROMOMETHANE.mol	75-25-2
  NIST    06201314153D 1   1.00000 -7753.80644
Copyright by the U.S. Sec. Commerce on behalf of U.S.A. All rights reserved.
  5  4  0  0  0  0  0  0  0  0999 V2000
    0.9584    0.8670    0.0266 C    0  0  0  0  0  0  0  0  0  0  0  0
   -0.0162    2.5536   -0.0318 Br   0  0  0  0  0  0  0  0  0  0  0  0
    2.8847    1.1580   -0.0319 Br   0  0  0  0  0  0  0  0  0  0  0  0
    0.4477   -0.1945    1.5783 Br   0  0  0  0  0  0  0  0  0  0  0  0
    0.6873    0.3033   -0.8578 H    0  0  0  0  0  0  0  0  0  0  0  0
  1  2  1  0
  1  3  1  0
  1  4  1  0
  1  5  1  0
M  END
