  TRIFLUOROPROPENE.mol	677-21-4
  NIST    11121313213D 1   1.00000  -415.62632
Copyright by the U.S. Sec. Commerce on behalf of U.S.A. All rights reserved.
  9  8  0  0  0  0  0  0  0  0999 V2000
   39.9837   19.8819   -0.2542 C    0  0  0  0  0  0  0  0  0  0  0  0
   38.5036   19.9852   -0.0596 C    0  0  0  0  0  0  0  0  0  0  0  0
   38.1749   21.1512    0.5443 F    0  0  0  0  0  0  0  0  0  0  0  0
   37.8556   19.9658   -1.2479 F    0  0  0  0  0  0  0  0  0  0  0  0
   38.0035   18.9835    0.6921 F    0  0  0  0  0  0  0  0  0  0  0  0
   40.7215   18.9030    0.2601 C    0  0  0  0  0  0  0  0  0  0  0  0
   40.4091   20.6805   -0.8558 H    0  0  0  0  0  0  0  0  0  0  0  0
   41.7938   18.8625    0.0964 H    0  0  0  0  0  0  0  0  0  0  0  0
   40.2800   18.1130    0.8592 H    0  0  0  0  0  0  0  0  0  0  0  0
  1  2  1  0
  1  6  2  0
  2  3  1  0
  2  4  1  0
  2  5  1  0
  1  7  1  0
  6  8  1  0
  6  9  1  0
M  END
