  TRIFLUOROMETHYLCYCLOHEXANE.mol	401-75-2
  NIST    07061519573D 1   1.00000  -572.92209
Copyright by the U.S. Sec. Commerce on behalf of U.S.A. All rights reserved.
 21 21  0  0  0  0  0  0  0  0999 V2000
   -3.9913    0.9628    1.2006 C    0  0  0  0  0  0  0  0  0  0  0  0
   -5.1188    2.0038    1.2678 C    0  0  0  0  0  0  0  0  0  0  0  0
   -5.4085    2.6010   -0.1172 C    0  0  0  0  0  0  0  0  0  0  0  0
   -5.7155    1.5093   -1.1528 C    0  0  0  0  0  0  0  0  0  0  0  0
   -4.5814    0.4677   -1.2179 C    0  0  0  0  0  0  0  0  0  0  0  0
   -4.2938   -0.1353    0.1706 C    0  0  0  0  0  0  0  0  0  0  0  0
   -4.8843   -0.6154   -2.2366 C    0  0  0  0  0  0  0  0  0  0  0  0
   -5.0804   -0.0999   -3.4736 F    0  0  0  0  0  0  0  0  0  0  0  0
   -5.9986   -1.3171   -1.9186 F    0  0  0  0  0  0  0  0  0  0  0  0
   -3.8699   -1.5072   -2.3365 F    0  0  0  0  0  0  0  0  0  0  0  0
   -3.8303    0.5094    2.1863 H    0  0  0  0  0  0  0  0  0  0  0  0
   -3.0501    1.4641    0.9304 H    0  0  0  0  0  0  0  0  0  0  0  0
   -6.0309    1.5247    1.6528 H    0  0  0  0  0  0  0  0  0  0  0  0
   -4.8594    2.7993    1.9775 H    0  0  0  0  0  0  0  0  0  0  0  0
   -6.2497    3.3029   -0.0626 H    0  0  0  0  0  0  0  0  0  0  0  0
   -4.5376    3.1840   -0.4513 H    0  0  0  0  0  0  0  0  0  0  0  0
   -6.6488    0.9972   -0.8822 H    0  0  0  0  0  0  0  0  0  0  0  0
   -5.8717    1.9515   -2.1429 H    0  0  0  0  0  0  0  0  0  0  0  0
   -3.6697    0.9616   -1.5829 H    0  0  0  0  0  0  0  0  0  0  0  0
   -5.1713   -0.7118    0.4934 H    0  0  0  0  0  0  0  0  0  0  0  0
   -3.4580   -0.8403    0.1041 H    0  0  0  0  0  0  0  0  0  0  0  0
  1  2  1  0  0  0  0
  1  6  1  0  0  0  0
  1 11  1  0  0  0  0
  1 12  1  0  0  0  0
  2  3  1  0  0  0  0
  2 13  1  0  0  0  0
  2 14  1  0  0  0  0
  3  4  1  0  0  0  0
  3 15  1  0  0  0  0
  3 16  1  0  0  0  0
  4  5  1  0  0  0  0
  4 17  1  0  0  0  0
  4 18  1  0  0  0  0
  5  7  1  0  0  0  0
  5  6  1  0  0  0  0
  5 19  1  0  0  0  0
  6 20  1  0  0  0  0
  6 21  1  0  0  0  0
  7  8  1  0  0  0  0
  7  9  1  0  0  0  0
  7 10  1  0  0  0  0
M  END
