  TRIFLUOROCHLOROMETHANE.mol	75-72-9
  NIST    06301516263D 1   1.00000  -797.81677
Copyright by the U.S. Sec. Commerce on behalf of U.S.A. All rights reserved.
  5  4  0  0  0  0  0  0  0  0999 V2000
    2.4666    0.0209    0.0399 Cl   0  0  0  0  0  0  0  0  0  0  0  0
    1.2312    0.6236    1.1765 C    0  0  0  0  0  0  0  0  0  0  0  0
    1.3789    0.0356    2.3611 F    0  0  0  0  0  0  0  0  0  0  0  0
    1.3581    1.9394    1.3296 F    0  0  0  0  0  0  0  0  0  0  0  0
    0.0136    0.3576    0.7097 F    0  0  0  0  0  0  0  0  0  0  0  0
  1  2  1  0  0  0  0
  2  3  1  0  0  0  0
  2  4  1  0  0  0  0
  2  5  1  0  0  0  0
M  END
