  TRIFLUOROETHYL TRIFLUOROACETATE.mol	407-38-5
  NIST    08031215093D 1   1.00000  -903.12288
Copyright by the U.S. Sec. Commerce on behalf of U.S.A. All rights reserved.
 14 13  0  0  0  0  0  0  0  0999 V2000
   35.0939   27.9960   -0.3182 C    0  0  0  0  0  0  0  0  0  0  0  0
   36.0060   27.7482    0.6417 O    0  0  0  0  0  0  0  0  0  0  0  0
   37.2677   28.4153    0.5185 C    0  0  0  0  0  0  0  0  0  0  0  0
   33.8171   27.1785   -0.0223 C    0  0  0  0  0  0  0  0  0  0  0  0
   35.2066   28.7480   -1.2475 O    0  0  0  0  0  0  0  0  0  0  0  0
   38.3043   27.4490   -0.0342 C    0  0  0  0  0  0  0  0  0  0  0  0
   34.1099   25.8763    0.1170 F    0  0  0  0  0  0  0  0  0  0  0  0
   33.2526   27.6135    1.1183 F    0  0  0  0  0  0  0  0  0  0  0  0
   32.9422   27.3220   -1.0179 F    0  0  0  0  0  0  0  0  0  0  0  0
   37.9417   26.9784   -1.2405 F    0  0  0  0  0  0  0  0  0  0  0  0
   39.4801   28.0962   -0.1631 F    0  0  0  0  0  0  0  0  0  0  0  0
   38.4902   26.3987    0.7828 F    0  0  0  0  0  0  0  0  0  0  0  0
   37.1855   29.2760   -0.1466 H    0  0  0  0  0  0  0  0  0  0  0  0
   37.5647   28.7249    1.5213 H    0  0  0  0  0  0  0  0  0  0  0  0
  1  2  1  0
  1  4  1  0
  1  5  2  0
  2  3  1  0
  3  6  1  0
  4  7  1  0
  4  8  1  0
  4  9  1  0
  6 10  1  0
  6 11  1  0
  6 12  1  0
  3 13  1  0
  3 14  1  0
M  END
