  TRIIODOMETHANE.mol	75-47-8
  NIST    06201314153D 1   1.00000   -72.92710
Copyright by the U.S. Sec. Commerce on behalf of U.S.A. All rights reserved.
  5  4  0  0  0  0  0  0  0  0999 V2000
    1.7888    1.5093    0.0726 I    0  0  0  0  0  0  0  0  0  0  0  0
   -0.1331    0.4665   -0.0597 C    0  0  0  0  0  0  0  0  0  0  0  0
   -1.8547    1.8143    0.0726 I    0  0  0  0  0  0  0  0  0  0  0  0
   -0.2483   -0.9142   -1.7568 I    0  0  0  0  0  0  0  0  0  0  0  0
   -0.1850   -0.1576    0.8246 H    0  0  0  0  0  0  0  0  0  0  0  0
  1  2  1  0
  2  3  1  0
  2  4  1  0
  2  5  1  0
M  END
