  TRIMETHYLENESULFIDE.mol	287-27-4
  NIST    07021514223D 1   1.00000  -516.09606
Copyright by the U.S. Sec. Commerce on behalf of U.S.A. All rights reserved.
 10 10  0  0  0  0  0  0  0  0999 V2000
    0.6674    1.3536    0.8093 C    0  0  0  0  0  0  0  0  0  0  0  0
    1.7404    2.4460    1.0127 C    0  0  0  0  0  0  0  0  0  0  0  0
    2.9679    1.5251    0.8361 C    0  0  0  0  0  0  0  0  0  0  0  0
    1.9215    0.0061    1.0895 S    0  0  0  0  0  0  0  0  0  0  0  0
   -0.1589    1.3468    1.5238 H    0  0  0  0  0  0  0  0  0  0  0  0
    0.2672    1.3139   -0.2079 H    0  0  0  0  0  0  0  0  0  0  0  0
    1.6854    3.2896    0.3152 H    0  0  0  0  0  0  0  0  0  0  0  0
    1.6990    2.8421    2.0318 H    0  0  0  0  0  0  0  0  0  0  0  0
    3.3933    1.5471   -0.1713 H    0  0  0  0  0  0  0  0  0  0  0  0
    3.7691    1.6396    1.5698 H    0  0  0  0  0  0  0  0  0  0  0  0
  1  2  1  0  0  0  0
  1  5  1  0  0  0  0
  1  6  1  0  0  0  0
  2  3  1  0  0  0  0
  2  7  1  0  0  0  0
  2  8  1  0  0  0  0
  3  4  1  0  0  0  0
  3  9  1  0  0  0  0
  3 10  1  0  0  0  0
  4  1  1  0  0  0  0
M  END
