  TRIPHENYLETHYLENE.mol	58-72-0
  NIST    07021505513D 1   1.00000  -771.75796
Copyright by the U.S. Sec. Commerce on behalf of U.S.A. All rights reserved.
 36 38  0  0  0  0  0  0  0  0999 V2000
    4.6570    5.6233    2.2824 C    0  0  0  0  0  0  0  0  0  0  0  0
    5.9135    5.1400    2.4577 C    0  0  0  0  0  0  0  0  0  0  0  0
    6.2565    3.6866    2.4314 C    0  0  0  0  0  0  0  0  0  0  0  0
    7.0448    6.0930    2.6344 C    0  0  0  0  0  0  0  0  0  0  0  0
    3.3632    4.9273    2.2005 C    0  0  0  0  0  0  0  0  0  0  0  0
    5.9149    2.8850    1.3299 C    0  0  0  0  0  0  0  0  0  0  0  0
    6.9656    3.0984    3.4920 C    0  0  0  0  0  0  0  0  0  0  0  0
    8.3106    5.8203    2.0835 C    0  0  0  0  0  0  0  0  0  0  0  0
    6.8810    7.2965    3.3449 C    0  0  0  0  0  0  0  0  0  0  0  0
    2.3157    5.5563    1.4999 C    0  0  0  0  0  0  0  0  0  0  0  0
    3.0856    3.7002    2.8341 C    0  0  0  0  0  0  0  0  0  0  0  0
    6.2548    1.5329    1.2985 C    0  0  0  0  0  0  0  0  0  0  0  0
    7.2965    1.7436    3.4656 C    0  0  0  0  0  0  0  0  0  0  0  0
    9.3601    6.7279    2.2128 C    0  0  0  0  0  0  0  0  0  0  0  0
    7.9314    8.2033    3.4758 C    0  0  0  0  0  0  0  0  0  0  0  0
    1.0546    4.9723    1.4026 C    0  0  0  0  0  0  0  0  0  0  0  0
    1.8224    3.1208    2.7439 C    0  0  0  0  0  0  0  0  0  0  0  0
    6.9423    0.9559    2.3682 C    0  0  0  0  0  0  0  0  0  0  0  0
    9.1758    7.9253    2.9073 C    0  0  0  0  0  0  0  0  0  0  0  0
    0.8025    3.7475    2.0230 C    0  0  0  0  0  0  0  0  0  0  0  0
    4.5725    6.7039    2.1742 H    0  0  0  0  0  0  0  0  0  0  0  0
    5.3795    3.3313    0.4972 H    0  0  0  0  0  0  0  0  0  0  0  0
    7.2519    3.7096    4.3436 H    0  0  0  0  0  0  0  0  0  0  0  0
    8.4647    4.8945    1.5377 H    0  0  0  0  0  0  0  0  0  0  0  0
    5.9268    7.5069    3.8193 H    0  0  0  0  0  0  0  0  0  0  0  0
    2.5033    6.5149    1.0211 H    0  0  0  0  0  0  0  0  0  0  0  0
    3.8595    3.2079    3.4120 H    0  0  0  0  0  0  0  0  0  0  0  0
    5.9846    0.9302    0.4353 H    0  0  0  0  0  0  0  0  0  0  0  0
    7.8352    1.3043    4.3012 H    0  0  0  0  0  0  0  0  0  0  0  0
   10.3251    6.4993    1.7677 H    0  0  0  0  0  0  0  0  0  0  0  0
    7.7806    9.1227    4.0359 H    0  0  0  0  0  0  0  0  0  0  0  0
    0.2678    5.4765    0.8476 H    0  0  0  0  0  0  0  0  0  0  0  0
    1.6309    2.1762    3.2466 H    0  0  0  0  0  0  0  0  0  0  0  0
    7.2058   -0.0982    2.3442 H    0  0  0  0  0  0  0  0  0  0  0  0
    9.9967    8.6295    3.0134 H    0  0  0  0  0  0  0  0  0  0  0  0
   -0.1812    3.2905    1.9552 H    0  0  0  0  0  0  0  0  0  0  0  0
  1  2  2  0  0  0  0
  1  5  1  0  0  0  0
  1 21  1  0  0  0  0
  2  3  1  0  0  0  0
  2  4  1  0  0  0  0
  3  7  1  0  0  0  0
  4  9  1  0  0  0  0
  5 11  1  0  0  0  0
  6  3  2  0  0  0  0
  6 22  1  0  0  0  0
  7 13  2  0  0  0  0
  7 23  1  0  0  0  0
  8  4  2  0  0  0  0
  8 24  1  0  0  0  0
  9 15  2  0  0  0  0
  9 25  1  0  0  0  0
 10  5  2  0  0  0  0
 10 26  1  0  0  0  0
 11 17  2  0  0  0  0
 11 27  1  0  0  0  0
 12  6  1  0  0  0  0
 12 28  1  0  0  0  0
 13 18  1  0  0  0  0
 13 29  1  0  0  0  0
 14  8  1  0  0  0  0
 14 30  1  0  0  0  0
 15 19  1  0  0  0  0
 15 31  1  0  0  0  0
 16 10  1  0  0  0  0
 16 32  1  0  0  0  0
 17 20  1  0  0  0  0
 17 33  1  0  0  0  0
 18 12  2  0  0  0  0
 18 34  1  0  0  0  0
 19 14  2  0  0  0  0
 19 35  1  0  0  0  0
 20 16  2  0  0  0  0
 20 36  1  0  0  0  0
M  END
