
 OpenBabel08211711203D

 19 18  0  0  0  0  0  0  0  0999 V2000
    0.3060    1.8804    0.2122 C   0  0  0  0  0  0  0  0  0  0  0  0
   -0.1379    1.2282   -1.1073 C   0  0  0  0  0  0  0  0  0  0  0  0
    1.6966    1.3577    0.6863 C   0  0  2  0  0  0  0  0  0  0  0  0
    0.2526    3.4116    0.0902 C   0  0  0  0  0  0  0  0  0  0  0  0
    2.8172    1.6397   -0.2992 C   0  0  0  0  0  0  0  0  0  0  0  0
    3.5011    0.6193   -0.8627 O   0  0  0  0  0  0  0  0  0  0  0  0
    3.1255    2.7911   -0.5661 O   0  0  0  0  0  0  0  0  0  0  0  0
    1.6150   -0.0834    0.9484 N   0  0  0  0  0  0  0  0  0  0  0  0
   -0.1731    0.1233   -1.0039 H   0  0  0  0  0  0  0  0  0  0  0  0
    0.5591    1.4885   -1.9319 H   0  0  0  0  0  0  0  0  0  0  0  0
   -1.1562    1.5767   -1.3828 H   0  0  0  0  0  0  0  0  0  0  0  0
    0.5458    3.8830    1.0522 H   0  0  0  0  0  0  0  0  0  0  0  0
   -0.7830    3.7350   -0.1492 H   0  0  0  0  0  0  0  0  0  0  0  0
    0.9128    3.7871   -0.7167 H   0  0  0  0  0  0  0  0  0  0  0  0
    4.2244    0.7840   -1.4842 H   0  0  0  0  0  0  0  0  0  0  0  0
    0.8813   -0.2646    1.6717 H   0  0  0  0  0  0  0  0  0  0  0  0
    2.5222   -0.4138    1.3522 H   0  0  0  0  0  0  0  0  0  0  0  0
    1.9533    1.8628    1.6454 H   0  0  0  0  0  0  0  0  0  0  0  0
   -0.4353    1.6045    0.9952 H   0  0  0  0  0  0  0  0  0  0  0  0
  1  2  1  0  0  0  0
  1  4  1  0  0  0  0
  3  1  1  0  0  0  0
  3  5  1  0  0  0  0
  3  8  1  0  0  0  0
  3 18  1  1  0  0  0
  5  6  1  0  0  0  0
  7  5  2  0  0  0  0
  9  2  1  0  0  0  0
 10  2  1  0  0  0  0
 11  2  1  0  0  0  0
 12  4  1  0  0  0  0
 13  4  1  0  0  0  0
 14  4  1  0  0  0  0
 15  6  1  0  0  0  0
 16  8  1  0  0  0  0
 17  8  1  0  0  0  0
 19  1  1  0  0  0  0
M  END
