  VANILLIN.mol	121-33-5
  NIST    06301519423D 1   1.00000  -535.30683
Copyright by the U.S. Sec. Commerce on behalf of U.S.A. All rights reserved.
 19 19  0  0  0  0  0  0  0  0999 V2000
    0.8126    1.9372    1.0946 C    0  0  0  0  0  0  0  0  0  0  0  0
    1.8574    1.8297    0.1216 O    0  0  0  0  0  0  0  0  0  0  0  0
    3.0747    2.3486    0.4794 C    0  0  0  0  0  0  0  0  0  0  0  0
    4.1677    1.4968    0.5919 C    0  0  0  0  0  0  0  0  0  0  0  0
    3.2706    3.7353    0.6601 C    0  0  0  0  0  0  0  0  0  0  0  0
    5.4479    1.9892    0.8848 C    0  0  0  0  0  0  0  0  0  0  0  0
    2.1870    4.5489    0.5153 O    0  0  0  0  0  0  0  0  0  0  0  0
    4.5462    4.2284    0.9678 C    0  0  0  0  0  0  0  0  0  0  0  0
    6.5894    1.0618    0.9938 C    0  0  0  0  0  0  0  0  0  0  0  0
    5.6282    3.3658    1.0787 C    0  0  0  0  0  0  0  0  0  0  0  0
    7.7320    1.3919    1.2554 O    0  0  0  0  0  0  0  0  0  0  0  0
    1.1038    1.4483    2.0336 H    0  0  0  0  0  0  0  0  0  0  0  0
    0.5494    2.9810    1.2893 H    0  0  0  0  0  0  0  0  0  0  0  0
   -0.0468    1.4162    0.6673 H    0  0  0  0  0  0  0  0  0  0  0  0
    4.0040    0.4333    0.4365 H    0  0  0  0  0  0  0  0  0  0  0  0
    2.4645    5.4694    0.6470 H    0  0  0  0  0  0  0  0  0  0  0  0
    4.6801    5.3000    1.1077 H    0  0  0  0  0  0  0  0  0  0  0  0
    6.3348   -0.0071    0.8149 H    0  0  0  0  0  0  0  0  0  0  0  0
    6.6214    3.7367    1.3102 H    0  0  0  0  0  0  0  0  0  0  0  0
  1  2  1  0  0  0  0
  1 12  1  0  0  0  0
  1 13  1  0  0  0  0
  1 14  1  0  0  0  0
  2  3  1  0  0  0  0
  3  5  1  0  0  0  0
  4  3  2  0  0  0  0
  4 15  1  0  0  0  0
  5  7  1  0  0  0  0
  5  8  2  0  0  0  0
  6  4  1  0  0  0  0
  6  9  1  0  0  0  0
  7 16  1  0  0  0  0
  8 10  1  0  0  0  0
  8 17  1  0  0  0  0
  9 11  2  0  0  0  0
  9 18  1  0  0  0  0
 10  6  2  0  0  0  0
 10 19  1  0  0  0  0
M  END
