  VINYL FLUORIDE.mol	75-02-5
  NIST    07011508033D 1   1.00000  -177.81964
Copyright by the U.S. Sec. Commerce on behalf of U.S.A. All rights reserved.
  6  5  0  0  0  0  0  0  0  0999 V2000
    2.1622    1.9692    0.0919 C    0  0  0  0  0  0  0  0  0  0  0  0
    0.9967    1.3408    0.0504 C    0  0  0  0  0  0  0  0  0  0  0  0
    0.8971   -0.0027    0.0660 F    0  0  0  0  0  0  0  0  0  0  0  0
    3.0995    1.4256    0.1408 H    0  0  0  0  0  0  0  0  0  0  0  0
    2.1880    3.0525    0.0769 H    0  0  0  0  0  0  0  0  0  0  0  0
    0.0220    1.8182    0.0008 H    0  0  0  0  0  0  0  0  0  0  0  0
  1  2  2  0  0  0  0
  1  4  1  0  0  0  0
  1  5  1  0  0  0  0
  2  3  1  0  0  0  0
  2  6  1  0  0  0  0
M  END
