
 OpenBabel09301909353D

 22 21  0  0  0  0  0  0  0  0999 V2000
    3.3096    0.5330   -0.5841 C   0  0  0  0  0  0  0  0  0  0  0  0
    2.9914    1.9508   -0.0717 C   0  0  1  0  0  0  0  0  0  0  0  0
    2.2025    2.7995   -1.1043 C   0  0  2  0  0  0  0  0  0  0  0  0
    1.8803    4.2363   -0.6060 C   0  0  1  0  0  0  0  0  0  0  0  0
    3.1188    5.0762   -0.2400 C   0  0  0  0  0  0  0  0  0  0  0  0
    3.9634    5.2128   -1.3498 O   0  0  0  0  0  0  0  0  0  0  0  0
    4.1042    0.5836   -1.7395 O   0  0  0  0  0  0  0  0  0  0  0  0
    1.1083    4.9210   -1.5626 O   0  0  0  0  0  0  0  0  0  0  0  0
    0.9967    2.1421   -1.4098 O   0  0  0  0  0  0  0  0  0  0  0  0
    2.3020    1.8785    1.1525 O   0  0  0  0  0  0  0  0  0  0  0  0
    3.8738   -0.0201    0.1967 H   0  0  0  0  0  0  0  0  0  0  0  0
    2.3756   -0.0476   -0.7686 H   0  0  0  0  0  0  0  0  0  0  0  0
    3.9699    2.4369    0.1223 H   0  0  0  0  0  0  0  0  0  0  0  0
    2.8329    2.8739   -2.0223 H   0  0  0  0  0  0  0  0  0  0  0  0
    1.2577    4.1504    0.3111 H   0  0  0  0  0  0  0  0  0  0  0  0
    2.7743    6.0803    0.0952 H   0  0  0  0  0  0  0  0  0  0  0  0
    3.6705    4.6010    0.5988 H   0  0  0  0  0  0  0  0  0  0  0  0
    4.7208    5.7804   -1.0515 H   0  0  0  0  0  0  0  0  0  0  0  0
    3.4881    0.5565   -2.5174 H   0  0  0  0  0  0  0  0  0  0  0  0
    1.6308    4.9592   -2.4061 H   0  0  0  0  0  0  0  0  0  0  0  0
    0.7859    2.3378   -2.3601 H   0  0  0  0  0  0  0  0  0  0  0  0
    1.4577    1.3796    0.9982 H   0  0  0  0  0  0  0  0  0  0  0  0
  1  2  1  0  0  0  0
  1  7  1  0  0  0  0
  1 11  1  0  0  0  0
  1 12  1  0  0  0  0
  2  3  1  0  0  0  0
  2 10  1  0  0  0  0
  2 13  1  1  0  0  0
  3  4  1  0  0  0  0
  3  9  1  0  0  0  0
  3 14  1  6  0  0  0
  4  5  1  0  0  0  0
  4  8  1  0  0  0  0
  4 15  1  1  0  0  0
  5  6  1  0  0  0  0
  5 16  1  0  0  0  0
  5 17  1  0  0  0  0
  6 18  1  0  0  0  0
  7 19  1  0  0  0  0
  8 20  1  0  0  0  0
  9 21  1  0  0  0  0
 10 22  1  0  0  0  0
M  END
